2ito
  PyMOL2.4          3D                             0

 31 34  0  0  0  0  0  0  0  0999 V2000
  -51.1650    2.4870  -16.1950 C   0  0  0  0  0  0  0  0  0  0  0  0
  -51.1890   -0.5850  -26.6740 C   0  0  0  0  0  0  0  0  0  0  0  0
  -51.1030   -0.6820  -25.2800 C   0  0  0  0  0  0  0  0  0  0  0  0
  -50.9250    1.7140  -25.1330 C   0  0  0  0  0  0  0  0  0  0  0  0
  -52.1950    1.8590  -18.8390 C   0  0  0  0  0  0  0  0  0  0  0  0
  -50.3990    0.4370  -20.3940 C   0  0  0  0  0  0  0  0  0  0  0  0
  -48.2760   -2.4690  -17.8210 C   0  0  0  0  0  0  0  0  0  0  0  0
  -48.8310   -1.4830  -18.8750 C   0  0  0  0  0  0  0  0  0  0  0  0
  -44.4060   -3.5920  -15.0750 C   0  0  0  0  0  0  0  0  0  0  0  0
  -44.0750   -4.8660  -17.1340 C   0  0  0  0  0  0  0  0  0  0  0  0
  -46.7510   -2.3190  -17.7170 C   0  0  0  0  0  0  0  0  0  0  0  0
  -45.4800   -2.7160  -15.7450 C   0  0  0  0  0  0  0  0  0  0  0  0
  -45.2550   -4.1730  -17.8460 C   0  0  0  0  0  0  0  0  0  0  0  0
  -51.1410    0.6670  -27.2930 C   0  0  0  0  0  0  0  0  0  0  0  0
  -51.0070    1.8060  -26.5120 C   0  0  0  0  0  0  0  0  0  0  0  0
  -50.9780    0.4720  -24.5090 C   0  0  0  0  0  0  0  0  0  0  0  0
  -51.1310    1.2010  -18.2160 C   0  0  0  0  0  0  0  0  0  0  0  0
  -50.8760    0.4060  -23.1830 N   0  0  0  0  0  0  0  0  0  0  0  0
  -50.9480    1.2280  -16.8510 O   0  0  0  0  0  0  0  0  0  0  0  0
  -43.4570   -4.0220  -16.1080 O   0  0  0  0  0  0  0  0  0  0  0  0
  -49.1940   -0.1540  -18.3610 O   0  0  0  0  0  0  0  0  0  0  0  0
  -50.2350    0.4780  -19.0000 C   0  0  0  0  0  0  0  0  0  0  0  0
  -46.1310   -3.3930  -16.9140 N   0  0  0  0  0  0  0  0  0  0  0  0
  -50.9430    3.3600  -27.2400 Cl  0  0  0  0  0  0  0  0  0  0  0  0
  -52.7310    1.7450  -22.9050 N   0  0  0  0  0  0  0  0  0  0  0  0
  -53.5590    2.4110  -22.1310 C   0  0  0  0  0  0  0  0  0  0  0  0
  -53.3700    2.4460  -20.8190 N   0  0  0  0  0  0  0  0  0  0  0  0
  -52.3520    1.8070  -20.2220 C   0  0  0  0  0  0  0  0  0  0  0  0
  -51.4580    1.1010  -21.0030 C   0  0  0  0  0  0  0  0  0  0  0  0
  -51.6810    1.0850  -22.3780 C   0  0  0  0  0  0  0  0  0  0  0  0
  -51.2180    0.7930  -28.6340 F   0  0  0  0  0  0  0  0  0  0  0  0
  2  3  2  0  0  0  0
  7  8  1  0  0  0  0
  7 11  1  0  0  0  0
  9 12  1  0  0  0  0
 10 13  1  0  0  0  0
  2 14  1  0  0  0  0
  4 15  1  0  0  0  0
 14 15  2  0  0  0  0
  3 16  1  0  0  0  0
  4 16  2  0  0  0  0
  5 17  1  0  0  0  0
 16 18  1  0  0  0  0
  1 19  1  0  0  0  0
 17 19  1  0  0  0  0
  9 20  1  0  0  0  0
 10 20  1  0  0  0  0
  8 21  1  0  0  0  0
  6 22  1  0  0  0  0
 17 22  2  0  0  0  0
 21 22  1  0  0  0  0
 11 23  1  0  0  0  0
 12 23  1  0  0  0  0
 13 23  1  0  0  0  0
 15 24  1  0  0  0  0
 25 26  1  0  0  0  0
 26 27  2  0  0  0  0
  5 28  2  0  0  0  0
 27 28  1  0  0  0  0
  6 29  2  0  0  0  0
 28 29  1  0  0  0  0
 18 30  1  0  0  0  0
 25 30  2  0  0  0  0
 29 30  1  0  0  0  0
 14 31  1  0  0  0  0
M  END
$$$$
