
 OpenBabel09092411563D

 35 37  0  0  0  0  0  0  0  0999 V2000
    0.8112  -51.8210   22.5051 C   0  0  0  0  0  0  0  0  0  0  0  0
    0.8538  -51.2688   21.1110 C   0  0  0  0  0  0  0  0  0  0  0  0
    1.2471  -52.1537   19.9655 C   0  0  0  0  0  0  0  0  0  0  0  0
    1.5978  -53.5909   20.2141 N   0  0  0  0  0  0  0  0  0  0  0  0
    1.5551  -54.1430   21.6081 C   0  0  0  0  0  0  0  0  0  0  0  0
    1.1618  -53.2581   22.7536 N   0  0  0  0  0  0  0  0  0  0  0  0
    1.2898  -51.6016   18.5715 N   0  0  0  0  0  0  0  0  0  0  0  0
    2.0892  -52.3006   17.5122 C   0  0  0  0  0  0  0  0  0  0  0  0
    2.1319  -51.7484   16.1181 C   0  0  0  0  0  0  0  0  0  0  0  0
    1.3752  -50.4973   15.7835 O   0  0  0  0  0  0  0  0  0  0  0  0
    0.5757  -49.7983   16.8429 C   0  0  0  0  0  0  0  0  0  0  0  0
    0.5330  -50.3505   18.2369 C   0  0  0  0  0  0  0  0  0  0  0  0
    0.4179  -50.9361   23.6506 N   0  0  0  0  0  0  0  0  0  0  0  0
   -1.6837  -52.3781   25.2330 F   0  0  0  0  0  0  0  0  0  0  0  0
   -0.3490  -52.0843   25.8514 C   0  0  0  0  0  0  0  0  0  0  0  0
   -0.0651  -52.5115   27.2609 C   0  0  0  0  0  0  0  0  0  0  0  0
   -1.1159  -53.2326   28.0522 Cl  0  0  0  0  0  0  0  0  0  0  0  0
    1.2695  -52.2178   27.8793 C   0  0  0  0  0  0  0  0  0  0  0  0
    2.3203  -51.4968   27.0881 C   0  0  0  0  0  0  0  0  0  0  0  0
    2.0364  -51.0695   25.6786 C   0  0  0  0  0  0  0  0  0  0  0  0
    0.7018  -51.3633   25.0602 C   0  0  0  0  0  0  0  0  0  0  0  0
    0.6125  -50.2801   20.9400 H   0  0  0  0  0  0  0  0  0  0  0  0
    1.7963  -55.1317   21.7791 H   0  0  0  0  0  0  0  0  0  0  0  0
    1.7017  -53.2953   17.4387 H   0  0  0  0  0  0  0  0  0  0  0  0
    3.0978  -52.1895   17.8518 H   0  0  0  0  0  0  0  0  0  0  0  0
    1.7620  -52.5157   15.4705 H   0  0  0  0  0  0  0  0  0  0  0  0
    3.1545  -51.4562   16.0005 H   0  0  0  0  0  0  0  0  0  0  0  0
   -0.4351  -49.7624   16.4938 H   0  0  0  0  0  0  0  0  0  0  0  0
    1.0879  -48.8666   16.9630 H   0  0  0  0  0  0  0  0  0  0  0  0
   -0.4954  -50.5421   18.4619 H   0  0  0  0  0  0  0  0  0  0  0  0
    1.0312  -49.5999   18.8142 H   0  0  0  0  0  0  0  0  0  0  0  0
   -0.0266  -50.0749   23.4773 H   0  0  0  0  0  0  0  0  0  0  0  0
    1.4648  -52.5118   28.8491 H   0  0  0  0  0  0  0  0  0  0  0  0
    3.2386  -51.2947   27.5135 H   0  0  0  0  0  0  0  0  0  0  0  0
    2.7593  -50.5734   25.1343 H   0  0  0  0  0  0  0  0  0  0  0  0
  1  2  2  0  0  0  0
  2  3  1  0  0  0  0
  2 22  1  0  0  0  0
  3  7  1  0  0  0  0
  3  4  2  0  0  0  0
  4  5  1  0  0  0  0
  5  6  2  0  0  0  0
  5 23  1  0  0  0  0
  6  1  1  0  0  0  0
  7  8  1  0  0  0  0
  8  9  1  0  0  0  0
  8 24  1  0  0  0  0
  8 25  1  0  0  0  0
  9 10  1  0  0  0  0
  9 26  1  0  0  0  0
  9 27  1  0  0  0  0
 10 11  1  0  0  0  0
 11 12  1  0  0  0  0
 11 28  1  0  0  0  0
 11 29  1  0  0  0  0
 12  7  1  0  0  0  0
 12 30  1  0  0  0  0
 12 31  1  0  0  0  0
 13  1  1  0  0  0  0
 13 32  1  0  0  0  0
 14 15  1  0  0  0  0
 15 16  2  0  0  0  0
 16 17  1  0  0  0  0
 16 18  1  0  0  0  0
 18 19  2  0  0  0  0
 18 33  1  0  0  0  0
 19 20  1  0  0  0  0
 19 34  1  0  0  0  0
 20 21  2  0  0  0  0
 20 35  1  0  0  0  0
 21 13  1  0  0  0  0
 21 15  1  0  0  0  0
M  END
$$$$

 OpenBabel09092411563D

 48 51  0  0  0  0  0  0  0  0999 V2000
    1.5648  -51.4825   18.8357 C   0  0  0  0  0  0  0  0  0  0  0  0
    2.5500  -52.4547   18.2576 C   0  0  0  0  0  0  0  0  0  0  0  0
    2.7223  -52.5533   16.7709 C   0  0  0  0  0  0  0  0  0  0  0  0
    1.9092  -51.6797   15.8621 N   0  0  0  0  0  0  0  0  0  0  0  0
    0.9240  -50.7076   16.4401 C   0  0  0  0  0  0  0  0  0  0  0  0
    0.7517  -50.6090   17.9269 C   0  0  0  0  0  0  0  0  0  0  0  0
    0.2486  -54.8720   26.9273 C   0  0  0  0  0  0  0  0  0  0  0  0
    0.4478  -53.4856   26.3906 N   0  3  1  0  0  0  0  0  0  0  0  0
    0.4708  -52.2221   27.1989 C   0  0  0  0  0  0  0  0  0  0  0  0
    0.6963  -51.0748   26.2593 C   0  0  0  0  0  0  0  0  0  0  0  0
    0.8127  -51.6291   24.8704 C   0  0  2  0  0  0  0  0  0  0  0  0
    1.0240  -51.2626   23.4313 C   0  0  0  0  0  0  0  0  0  0  0  0
    1.0010  -52.5260   22.6229 N   0  0  0  0  0  0  0  0  0  0  0  0
    1.1733  -52.6247   21.1362 C   0  0  0  0  0  0  0  0  0  0  0  0
    1.1265  -53.9645   20.4630 O   0  0  0  0  0  0  0  0  0  0  0  0
    1.3924  -51.3838   20.3225 N   0  0  0  0  0  0  0  0  0  0  0  0
    0.7756  -53.6733   23.5626 C   0  0  0  0  0  0  0  0  0  0  0  0
    0.6591  -53.1190   24.9515 C   0  0  1  0  0  0  0  0  0  0  0  0
    0.1110  -49.8340   15.5313 O   0  0  0  0  0  0  0  0  0  0  0  0
   -1.3626  -50.0721   15.3827 C   0  0  0  0  0  0  0  0  0  0  0  0
   -2.3123  -49.5738   16.4314 C   0  0  0  0  0  0  0  0  0  0  0  0
   -3.7858  -49.8119   16.2829 C   0  0  0  0  0  0  0  0  0  0  0  0
   -4.3096  -50.5483   15.0856 N   0  0  0  0  0  0  0  0  0  0  0  0
   -3.3598  -51.0467   14.0369 C   0  0  0  0  0  0  0  0  0  0  0  0
   -1.8863  -50.8086   14.1855 C   0  0  0  0  0  0  0  0  0  0  0  0
   -3.8836  -51.7831   12.8398 C   0  0  0  0  0  0  0  0  0  0  0  0
   -4.4075  -52.5194   11.6426 N   0  0  0  0  0  0  0  0  0  0  0  0
    3.1093  -53.0558   18.8828 H   0  0  0  0  0  0  0  0  0  0  0  0
    3.4002  -53.2221   16.3732 H   0  0  0  0  0  0  0  0  0  0  0  0
    0.0738  -49.9402   18.3246 H   0  0  0  0  0  0  0  0  0  0  0  0
    0.1229  -54.8288   27.9890 H   0  0  0  0  0  0  0  0  0  0  0  0
    1.1036  -55.4713   26.6934 H   0  0  0  0  0  0  0  0  0  0  0  0
   -0.6229  -55.3049   26.4823 H   0  0  0  0  0  0  0  0  0  0  0  0
    0.3120  -54.4286   26.7550 H   0  0  0  0  0  0  0  0  0  0  0  0
    1.2631  -52.2647   27.9168 H   0  0  0  0  0  0  0  0  0  0  0  0
   -0.4547  -52.0982   27.7215 H   0  0  0  0  0  0  0  0  0  0  0  0
    1.5978  -50.5619   26.5223 H   0  0  0  0  0  0  0  0  0  0  0  0
   -0.1174  -50.3823   26.3162 H   0  0  0  0  0  0  0  0  0  0  0  0
    0.9223  -50.5663   24.8126 H   0  0  0  0  0  0  0  0  0  0  0  0
    1.9693  -50.7748   23.3159 H   0  0  0  0  0  0  0  0  0  0  0  0
    0.2551  -50.5959   23.1008 H   0  0  0  0  0  0  0  0  0  0  0  0
    1.4231  -50.5045   20.7643 H   0  0  0  0  0  0  0  0  0  0  0  0
    1.6007  -54.3526   23.5108 H   0  0  0  0  0  0  0  0  0  0  0  0
   -0.1163  -54.2014   23.2972 H   0  0  0  0  0  0  0  0  0  0  0  0
    0.5493  -54.1818   25.0093 H   0  0  0  0  0  0  0  0  0  0  0  0
   -1.9519  -49.0672   17.2551 H   0  0  0  0  0  0  0  0  0  0  0  0
   -4.4392  -49.4691   17.0044 H   0  0  0  0  0  0  0  0  0  0  0  0
   -1.2328  -51.1515   13.4641 H   0  0  0  0  0  0  0  0  0  0  0  0
  1  2  2  0  0  0  0
  2  3  1  0  0  0  0
  2 28  1  0  0  0  0
  3  4  2  0  0  0  0
  3 29  1  0  0  0  0
  4  5  1  0  0  0  0
  5 19  1  0  0  0  0
  5  6  2  0  0  0  0
  6  1  1  0  0  0  0
  6 30  1  0  0  0  0
  7  8  1  0  0  0  0
  7 31  1  0  0  0  0
  7 32  1  0  0  0  0
  7 33  1  0  0  0  0
  8  9  1  0  0  0  0
  8 34  1  6  0  0  0
  9 10  1  0  0  0  0
  9 35  1  0  0  0  0
  9 36  1  0  0  0  0
 10 37  1  0  0  0  0
 10 38  1  0  0  0  0
 11 10  1  0  0  0  0
 11 12  1  0  0  0  0
 11 39  1  1  0  0  0
 12 13  1  0  0  0  0
 12 40  1  0  0  0  0
 12 41  1  0  0  0  0
 13 14  1  0  0  0  0
 13 17  1  0  0  0  0
 14 15  2  0  0  0  0
 14 16  1  0  0  0  0
 16  1  1  0  0  0  0
 16 42  1  0  0  0  0
 17 43  1  0  0  0  0
 17 44  1  0  0  0  0
 18 17  1  0  0  0  0
 18  8  1  0  0  0  0
 18 11  1  0  0  0  0
 18 45  1  6  0  0  0
 19 20  1  0  0  0  0
 20 21  2  0  0  0  0
 21 22  1  0  0  0  0
 21 46  1  0  0  0  0
 22 23  2  0  0  0  0
 22 47  1  0  0  0  0
 23 24  1  0  0  0  0
 24 26  1  0  0  0  0
 24 25  2  0  0  0  0
 25 20  1  0  0  0  0
 25 48  1  0  0  0  0
 26 27  3  0  0  0  0
M  CHG  1   8   1
M  END
$$$$

 OpenBabel09092411563D

 39 41  0  0  0  0  0  0  0  0999 V2000
    0.9187  -51.2529   17.8723 C   0  0  1  0  0  0  0  0  0  0  0  0
    0.5042  -49.8252   18.0724 C   0  0  0  0  0  0  0  0  0  0  0  0
    0.3195  -49.5981   19.5436 C   0  0  2  0  0  0  0  0  0  0  0  0
   -0.0930  -48.3099   20.1919 N   0  3  0  0  0  0  0  0  0  0  0  0
    0.6198  -50.8854   20.2527 C   0  0  0  0  0  0  0  0  0  0  0  0
    0.6039  -51.2584   21.7054 C   0  0  0  0  0  0  0  0  0  0  0  0
    0.9583  -52.6541   22.1253 C   0  0  0  0  0  0  0  0  0  0  0  0
    1.3286  -53.6768   21.0924 C   0  0  0  0  0  0  0  0  0  0  0  0
    1.3445  -53.3038   19.6396 C   0  0  0  0  0  0  0  0  0  0  0  0
    0.9901  -51.9081   19.2198 C   0  0  0  0  0  0  0  0  0  0  0  0
    2.6252  -52.2342   16.1767 C   0  0  0  0  0  0  0  0  0  0  0  0
    1.2105  -51.9100   16.5559 O   0  0  0  0  0  0  0  0  0  0  0  0
    0.9424  -53.0272   23.5781 N   0  0  0  0  0  0  0  0  0  0  0  0
    0.0127  -52.3247   24.5227 C   0  0  0  0  0  0  0  0  0  0  0  0
   -1.4532  -52.6425   24.5073 C   0  0  0  0  0  0  0  0  0  0  0  0
   -2.3829  -51.9400   25.4518 C   0  0  0  0  0  0  0  0  0  0  0  0
   -1.8466  -50.9197   26.4118 C   0  0  0  0  0  0  0  0  0  0  0  0
   -0.3808  -50.6019   26.4272 C   0  0  0  0  0  0  0  0  0  0  0  0
    0.5489  -51.3044   25.4826 C   0  0  0  0  0  0  0  0  0  0  0  0
    2.0148  -50.9866   25.4981 Cl  0  0  0  0  0  0  0  0  0  0  0  0
   -2.7763  -50.2172   27.3564 C   0  0  0  0  0  0  0  0  0  0  0  0
   -3.7060  -49.5147   28.3010 N   0  0  0  0  0  0  0  0  0  0  0  0
    1.1271  -51.7216   16.9332 H   0  0  0  0  0  0  0  0  0  0  0  0
   -0.4152  -49.6385   17.5579 H   0  0  0  0  0  0  0  0  0  0  0  0
    1.2506  -49.1636   17.6849 H   0  0  0  0  0  0  0  0  0  0  0  0
    0.0250  -48.6792   20.0059 H   0  0  0  0  0  0  0  0  0  0  0  0
    0.6773  -47.9514   20.7563 H   0  0  0  0  0  0  0  0  0  0  0  0
   -0.9040  -48.4739   20.7884 H   0  0  0  0  0  0  0  0  0  0  0  0
   -0.3328  -47.6284   19.4718 H   0  0  0  0  0  0  0  0  0  0  0  0
    0.3491  -50.5548   22.4160 H   0  0  0  0  0  0  0  0  0  0  0  0
    1.5724  -54.6371   21.3813 H   0  0  0  0  0  0  0  0  0  0  0  0
    1.5993  -54.0074   18.9289 H   0  0  0  0  0  0  0  0  0  0  0  0
    2.6389  -52.6957   15.2114 H   0  0  0  0  0  0  0  0  0  0  0  0
    3.0433  -52.9044   16.8985 H   0  0  0  0  0  0  0  0  0  0  0  0
    3.2025  -51.3337   16.1497 H   0  0  0  0  0  0  0  0  0  0  0  0
    1.5421  -53.7331   23.9116 H   0  0  0  0  0  0  0  0  0  0  0  0
   -1.8221  -53.3445   23.8469 H   0  0  0  0  0  0  0  0  0  0  0  0
   -3.3914  -52.1586   25.4412 H   0  0  0  0  0  0  0  0  0  0  0  0
   -0.0119  -49.8999   27.0877 H   0  0  0  0  0  0  0  0  0  0  0  0
  1 12  1  0  0  0  0
  1  2  1  0  0  0  0
  1 23  1  1  0  0  0
  2  3  1  0  0  0  0
  2 24  1  0  0  0  0
  2 25  1  0  0  0  0
  3  4  1  0  0  0  0
  3  5  1  0  0  0  0
  3 26  1  6  0  0  0
  4 27  1  0  0  0  0
  4 28  1  0  0  0  0
  4 29  1  0  0  0  0
  5  6  2  0  0  0  0
  6  7  1  0  0  0  0
  6 30  1  0  0  0  0
  7 13  1  0  0  0  0
  7  8  2  0  0  0  0
  8  9  1  0  0  0  0
  8 31  1  0  0  0  0
  9 10  2  0  0  0  0
  9 32  1  0  0  0  0
 10  1  1  0  0  0  0
 10  5  1  0  0  0  0
 11 12  1  0  0  0  0
 11 33  1  0  0  0  0
 11 34  1  0  0  0  0
 11 35  1  0  0  0  0
 13 14  1  0  0  0  0
 13 36  1  0  0  0  0
 14 15  2  0  0  0  0
 15 16  1  0  0  0  0
 15 37  1  0  0  0  0
 16 17  2  0  0  0  0
 16 38  1  0  0  0  0
 17 21  1  0  0  0  0
 17 18  1  0  0  0  0
 18 19  2  0  0  0  0
 18 39  1  0  0  0  0
 19 20  1  0  0  0  0
 19 14  1  0  0  0  0
 21 22  3  0  0  0  0
M  CHG  1   4   1
M  END
$$$$

 OpenBabel09092411563D

 33 35  0  0  0  0  0  0  0  0999 V2000
   -0.7787  -51.1787   23.6350 C   0  0  0  0  0  0  0  0  0  0  0  0
    0.5825  -50.9207   24.2099 C   0  0  0  0  0  0  0  0  0  0  0  0
    0.9147  -51.3957   25.5934 C   0  0  0  0  0  0  0  0  0  0  0  0
   -0.1144  -52.1286   26.4020 C   0  0  0  0  0  0  0  0  0  0  0  0
   -1.4757  -52.3866   25.8270 C   0  0  0  0  0  0  0  0  0  0  0  0
   -1.8078  -51.9117   24.4435 C   0  0  0  0  0  0  0  0  0  0  0  0
   -3.1690  -52.1696   23.8686 Cl  0  0  0  0  0  0  0  0  0  0  0  0
    0.2177  -52.6036   27.7854 O   0  0  0  0  0  0  0  0  0  0  0  0
    1.5789  -52.3456   28.3603 C   0  0  0  0  0  0  0  0  0  0  0  0
    2.6080  -51.6127   27.5518 C   0  0  0  0  0  0  0  0  0  0  0  0
    2.2759  -51.1377   26.1683 C   0  0  2  0  0  0  0  0  0  0  0  0
    3.3049  -50.4047   25.3597 O   0  0  0  0  0  0  0  0  0  0  0  0
   -1.1109  -50.7037   22.2514 N   0  0  0  0  0  0  0  0  0  0  0  0
    1.4781  -51.9132   18.7752 C   0  0  0  0  0  0  0  0  0  0  0  0
    1.3113  -52.8387   19.9438 C   0  0  0  0  0  0  0  0  0  0  0  0
    0.4483  -52.4355   21.1026 C   0  0  0  0  0  0  0  0  0  0  0  0
   -0.2479  -51.1069   21.0927 C   0  0  0  0  0  0  0  0  0  0  0  0
   -0.0811  -50.1814   19.9241 N   0  0  0  0  0  0  0  0  0  0  0  0
    0.7819  -50.5846   18.7653 C   0  0  0  0  0  0  0  0  0  0  0  0
    3.2041  -52.7195   16.4577 N   0  0  0  0  0  0  0  0  0  0  0  0
    2.3411  -52.3163   17.6164 C   0  0  0  0  0  0  0  0  0  0  0  0
    1.2905  -50.4164   23.6536 H   0  0  0  0  0  0  0  0  0  0  0  0
   -2.1837  -52.8908   26.3833 H   0  0  0  0  0  0  0  0  0  0  0  0
    1.9981  -53.3000   28.6018 H   0  0  0  0  0  0  0  0  0  0  0  0
    1.3806  -51.6760   29.1710 H   0  0  0  0  0  0  0  0  0  0  0  0
    3.4510  -52.2652   27.4603 H   0  0  0  0  0  0  0  0  0  0  0  0
    2.7472  -50.7029   28.0974 H   0  0  0  0  0  0  0  0  0  0  0  0
    3.3410  -51.1484   26.2699 H   0  0  0  0  0  0  0  0  0  0  0  0
    2.8630  -49.8755   24.6774 H   0  0  0  0  0  0  0  0  0  0  0  0
   -1.8953  -50.1274   22.1039 H   0  0  0  0  0  0  0  0  0  0  0  0
    1.7902  -53.7528   19.9506 H   0  0  0  0  0  0  0  0  0  0  0  0
    0.3336  -53.0722   21.9066 H   0  0  0  0  0  0  0  0  0  0  0  0
    0.8966  -49.9479   17.9613 H   0  0  0  0  0  0  0  0  0  0  0  0
  1  2  2  0  0  0  0
  2  3  1  0  0  0  0
  2 22  1  0  0  0  0
  3  4  2  0  0  0  0
  4  5  1  0  0  0  0
  4  8  1  0  0  0  0
  5  6  2  0  0  0  0
  5 23  1  0  0  0  0
  6  7  1  0  0  0  0
  6  1  1  0  0  0  0
  8  9  1  0  0  0  0
  9 10  1  0  0  0  0
  9 24  1  0  0  0  0
  9 25  1  0  0  0  0
 10 11  1  0  0  0  0
 10 26  1  0  0  0  0
 10 27  1  0  0  0  0
 11 12  1  0  0  0  0
 11  3  1  0  0  0  0
 11 28  1  6  0  0  0
 12 29  1  0  0  0  0
 13  1  1  0  0  0  0
 13 30  1  0  0  0  0
 14 15  2  0  0  0  0
 15 16  1  0  0  0  0
 15 31  1  0  0  0  0
 16 17  2  0  0  0  0
 16 32  1  0  0  0  0
 17 13  1  0  0  0  0
 17 18  1  0  0  0  0
 18 19  2  0  0  0  0
 19 14  1  0  0  0  0
 19 33  1  0  0  0  0
 20 21  3  0  0  0  0
 21 14  1  0  0  0  0
M  END
$$$$

 OpenBabel09092411563D

 33 35  0  0  0  0  0  0  0  0999 V2000
   -0.4267  -51.2886   23.4421 C   0  0  0  0  0  0  0  0  0  0  0  0
    0.8687  -51.0739   24.1672 C   0  0  0  0  0  0  0  0  0  0  0  0
    0.9989  -51.4782   25.6059 C   0  0  0  0  0  0  0  0  0  0  0  0
   -0.1663  -52.0972   26.3194 C   0  0  0  0  0  0  0  0  0  0  0  0
   -1.4617  -52.3120   25.5941 C   0  0  0  0  0  0  0  0  0  0  0  0
   -1.5919  -51.9077   24.1556 C   0  0  0  0  0  0  0  0  0  0  0  0
   -2.8873  -52.1225   23.4304 Cl  0  0  0  0  0  0  0  0  0  0  0  0
   -0.0362  -52.5015   27.7579 O   0  0  0  0  0  0  0  0  0  0  0  0
    1.2592  -52.2868   28.4831 C   0  0  0  0  0  0  0  0  0  0  0  0
    2.4244  -51.6677   27.7696 C   0  0  0  0  0  0  0  0  0  0  0  0
    2.2943  -51.2634   26.3310 C   0  0  2  0  0  0  0  0  0  0  0  0
    3.4595  -50.6443   25.6176 O   0  0  0  0  0  0  0  0  0  0  0  0
   -0.5569  -50.8843   22.0034 N   0  0  0  0  0  0  0  0  0  0  0  0
    1.1725  -51.6670   18.5183 C   0  0  0  0  0  0  0  0  0  0  0  0
    1.9696  -52.8893   18.8654 C   0  0  0  0  0  0  0  0  0  0  0  0
    1.9245  -53.4434   20.2587 N   0  0  0  0  0  0  0  0  0  0  0  0
    1.0824  -52.7750   21.3047 C   0  0  0  0  0  0  0  0  0  0  0  0
    0.2853  -51.5527   20.9574 C   0  0  0  0  0  0  0  0  0  0  0  0
    0.3304  -50.9987   19.5643 C   0  0  0  0  0  0  0  0  0  0  0  0
    1.2627  -50.5589   15.7318 N   0  0  0  0  0  0  0  0  0  0  0  0
    1.2176  -51.1130   17.1251 C   0  0  0  0  0  0  0  0  0  0  0  0
    1.6704  -50.6480   23.6763 H   0  0  0  0  0  0  0  0  0  0  0  0
   -2.2634  -52.7380   26.0849 H   0  0  0  0  0  0  0  0  0  0  0  0
    1.5828  -53.2465   28.8282 H   0  0  0  0  0  0  0  0  0  0  0  0
    1.0083  -51.5567   29.2240 H   0  0  0  0  0  0  0  0  0  0  0  0
    3.2279  -52.3725   27.8209 H   0  0  0  0  0  0  0  0  0  0  0  0
    2.5554  -50.7345   28.2764 H   0  0  0  0  0  0  0  0  0  0  0  0
    3.0030  -51.3143   25.5310 H   0  0  0  0  0  0  0  0  0  0  0  0
    3.7078  -49.8178   26.0605 H   0  0  0  0  0  0  0  0  0  0  0  0
   -1.1951  -50.1803   21.7457 H   0  0  0  0  0  0  0  0  0  0  0  0
    2.5490  -53.3491   18.1457 H   0  0  0  0  0  0  0  0  0  0  0  0
    1.0514  -53.1561   22.2633 H   0  0  0  0  0  0  0  0  0  0  0  0
   -0.2180  -50.1577   19.3254 H   0  0  0  0  0  0  0  0  0  0  0  0
  1  2  2  0  0  0  0
  2  3  1  0  0  0  0
  2 22  1  0  0  0  0
  3  4  2  0  0  0  0
  4  5  1  0  0  0  0
  4  8  1  0  0  0  0
  5  6  2  0  0  0  0
  5 23  1  0  0  0  0
  6  7  1  0  0  0  0
  6  1  1  0  0  0  0
  8  9  1  0  0  0  0
  9 10  1  0  0  0  0
  9 24  1  0  0  0  0
  9 25  1  0  0  0  0
 10 11  1  0  0  0  0
 10 26  1  0  0  0  0
 10 27  1  0  0  0  0
 11 12  1  0  0  0  0
 11  3  1  0  0  0  0
 11 28  1  6  0  0  0
 12 29  1  0  0  0  0
 13  1  1  0  0  0  0
 13 30  1  0  0  0  0
 14 15  2  0  0  0  0
 15 16  1  0  0  0  0
 15 31  1  0  0  0  0
 16 17  2  0  0  0  0
 17 18  1  0  0  0  0
 17 32  1  0  0  0  0
 18 13  1  0  0  0  0
 18 19  2  0  0  0  0
 19 14  1  0  0  0  0
 19 33  1  0  0  0  0
 20 21  3  0  0  0  0
 21 14  1  0  0  0  0
M  END
$$$$

 OpenBabel09092411563D

 40 43  0  0  0  0  0  0  0  0999 V2000
    0.7612  -50.5297   17.9357 C   0  0  0  0  0  0  0  0  0  0  0  0
    1.3085  -51.9260   17.9105 C   0  0  0  0  0  0  0  0  0  0  0  0
    1.4277  -52.7080   19.1849 C   0  0  0  0  0  0  0  0  0  0  0  0
    0.9997  -52.0936   20.4847 C   0  0  0  0  0  0  0  0  0  0  0  0
    0.4524  -50.6972   20.5100 C   0  0  0  0  0  0  0  0  0  0  0  0
    0.3331  -49.9153   19.2354 C   0  0  0  0  0  0  0  0  0  0  0  0
    0.0244  -50.0829   21.8096 O   0  0  0  0  0  0  0  0  0  0  0  0
    0.1436  -50.8648   23.0842 C   0  0  0  0  0  0  0  0  0  0  0  0
    0.6909  -52.2612   23.0589 C   0  0  2  0  0  0  0  0  0  0  0  0
    0.9246  -53.2674   24.1465 C   0  0  0  0  0  0  0  0  0  0  0  0
    1.4971  -54.5036   23.5189 N   0  3  0  0  0  0  0  0  0  0  0  0
    1.6172  -54.2615   22.0435 C   0  0  0  0  0  0  0  0  0  0  0  0
    1.1189  -52.8755   21.7592 C   0  0  2  0  0  0  0  0  0  0  0  0
    0.6419  -49.7477   16.6612 N   0  0  0  0  0  0  0  0  0  0  0  0
   -2.3240  -51.0053   13.5193 C   0  0  0  0  0  0  0  0  0  0  0  0
   -2.7971  -50.3119   14.7624 C   0  0  0  0  0  0  0  0  0  0  0  0
   -1.8084  -49.8927   15.8098 C   0  0  0  0  0  0  0  0  0  0  0  0
   -0.3468  -50.1669   15.6139 C   0  0  0  0  0  0  0  0  0  0  0  0
    0.1262  -50.8603   14.3708 C   0  0  0  0  0  0  0  0  0  0  0  0
   -0.8625  -51.2795   13.3235 C   0  0  0  0  0  0  0  0  0  0  0  0
   -0.3894  -51.9730   12.0803 Cl  0  0  0  0  0  0  0  0  0  0  0  0
   -4.3014  -51.8437   11.4247 N   0  0  0  0  0  0  0  0  0  0  0  0
   -3.3128  -51.4245   12.4720 C   0  0  0  0  0  0  0  0  0  0  0  0
    1.6031  -52.3487   17.0163 H   0  0  0  0  0  0  0  0  0  0  0  0
    1.8042  -53.6687   19.1675 H   0  0  0  0  0  0  0  0  0  0  0  0
   -0.0435  -48.9546   19.2527 H   0  0  0  0  0  0  0  0  0  0  0  0
   -0.8395  -50.9258   23.5023 H   0  0  0  0  0  0  0  0  0  0  0  0
    0.8807  -50.3217   23.6380 H   0  0  0  0  0  0  0  0  0  0  0  0
    0.3003  -51.4960   23.6967 H   0  0  0  0  0  0  0  0  0  0  0  0
   -0.0009  -53.5009   24.6301 H   0  0  0  0  0  0  0  0  0  0  0  0
    1.6001  -52.8746   24.8775 H   0  0  0  0  0  0  0  0  0  0  0  0
    0.8791  -55.2968   23.6903 H   0  0  0  0  0  0  0  0  0  0  0  0
    2.4116  -54.7132   23.9191 H   0  0  0  0  0  0  0  0  0  0  0  0
    1.0271  -54.9763   21.5090 H   0  0  0  0  0  0  0  0  0  0  0  0
    2.6360  -54.3614   21.7321 H   0  0  0  0  0  0  0  0  0  0  0  0
    1.2859  -52.9106   20.7029 H   0  0  0  0  0  0  0  0  0  0  0  0
    1.2125  -48.9594   16.5121 H   0  0  0  0  0  0  0  0  0  0  0  0
   -3.8027  -50.1232   14.8971 H   0  0  0  0  0  0  0  0  0  0  0  0
   -2.1338  -49.4157   16.6651 H   0  0  0  0  0  0  0  0  0  0  0  0
    1.1318  -51.0490   14.2360 H   0  0  0  0  0  0  0  0  0  0  0  0
  1  2  2  0  0  0  0
  2  3  1  0  0  0  0
  2 24  1  0  0  0  0
  3  4  2  0  0  0  0
  3 25  1  0  0  0  0
  4  5  1  0  0  0  0
  5  6  2  0  0  0  0
  5  7  1  0  0  0  0
  6  1  1  0  0  0  0
  6 26  1  0  0  0  0
  7  8  1  0  0  0  0
  8 27  1  0  0  0  0
  8 28  1  0  0  0  0
  9  8  1  0  0  0  0
  9 10  1  0  0  0  0
  9 29  1  6  0  0  0
 10 11  1  0  0  0  0
 10 30  1  0  0  0  0
 10 31  1  0  0  0  0
 11 12  1  0  0  0  0
 11 32  1  0  0  0  0
 11 33  1  0  0  0  0
 12 34  1  0  0  0  0
 12 35  1  0  0  0  0
 13 12  1  0  0  0  0
 13  9  1  0  0  0  0
 13  4  1  0  0  0  0
 13 36  1  6  0  0  0
 14  1  1  0  0  0  0
 14 37  1  0  0  0  0
 15 16  2  0  0  0  0
 16 17  1  0  0  0  0
 16 38  1  0  0  0  0
 17 18  2  0  0  0  0
 17 39  1  0  0  0  0
 18 14  1  0  0  0  0
 18 19  1  0  0  0  0
 19 20  2  0  0  0  0
 19 40  1  0  0  0  0
 20 21  1  0  0  0  0
 20 15  1  0  0  0  0
 22 23  3  0  0  0  0
 23 15  1  0  0  0  0
M  CHG  1  11   1
M  END
$$$$

 OpenBabel09092411563D

 33 35  0  0  0  0  0  0  0  0999 V2000
    0.2936  -51.2093   25.4068 C   0  0  0  0  0  0  0  0  0  0  0  0
   -0.6079  -50.2397   26.1120 C   0  0  0  0  0  0  0  0  0  0  0  0
   -2.0359  -50.0912   25.6777 C   0  0  0  0  0  0  0  0  0  0  0  0
   -2.5625  -50.9124   24.5382 C   0  0  0  0  0  0  0  0  0  0  0  0
   -1.6611  -51.8819   23.8330 C   0  0  0  0  0  0  0  0  0  0  0  0
   -0.2330  -52.0304   24.2674 C   0  0  0  0  0  0  0  0  0  0  0  0
   -4.0044  -50.5522   24.3348 O   0  0  0  0  0  0  0  0  0  0  0  0
   -4.3689  -49.5085   25.3486 C   0  0  0  0  0  0  0  0  0  0  0  0
   -3.1523  -49.2236   26.1786 C   0  0  2  0  0  0  0  0  0  0  0  0
   -3.0671  -48.2432   27.3106 N   0  3  0  0  0  0  0  0  0  0  0  0
    3.1497  -51.5062   26.2756 N   0  0  0  0  0  0  0  0  0  0  0  0
    1.7217  -51.3577   25.8412 C   0  0  0  0  0  0  0  0  0  0  0  0
    0.6685  -53.0000   23.5622 N   0  0  0  0  0  0  0  0  0  0  0  0
    1.0098  -52.7915   22.1165 C   0  0  0  0  0  0  0  0  0  0  0  0
    1.6852  -53.8830   21.3403 C   0  0  0  0  0  0  0  0  0  0  0  0
    2.0265  -53.6745   19.8946 N   0  0  0  0  0  0  0  0  0  0  0  0
    1.6924  -52.3745   19.2250 C   0  0  0  0  0  0  0  0  0  0  0  0
    1.0170  -51.2830   20.0012 C   0  0  0  0  0  0  0  0  0  0  0  0
    0.6828  -49.9829   19.3317 Cl  0  0  0  0  0  0  0  0  0  0  0  0
    0.6757  -51.4915   21.4469 C   0  0  0  0  0  0  0  0  0  0  0  0
    2.0337  -52.1659   17.7793 C   0  0  0  0  0  0  0  0  0  0  0  0
    2.3749  -51.9572   16.3337 N   0  0  0  0  0  0  0  0  0  0  0  0
   -0.2456  -49.6748   26.8960 H   0  0  0  0  0  0  0  0  0  0  0  0
   -2.0234  -52.4468   23.0490 H   0  0  0  0  0  0  0  0  0  0  0  0
   -5.1586  -49.8697   25.9738 H   0  0  0  0  0  0  0  0  0  0  0  0
   -4.7030  -48.6169   24.8605 H   0  0  0  0  0  0  0  0  0  0  0  0
   -3.0916  -48.5246   26.9864 H   0  0  0  0  0  0  0  0  0  0  0  0
   -2.8973  -47.3086   26.9389 H   0  0  0  0  0  0  0  0  0  0  0  0
   -2.3018  -48.5064   27.9315 H   0  0  0  0  0  0  0  0  0  0  0  0
   -3.9442  -48.2479   27.8312 H   0  0  0  0  0  0  0  0  0  0  0  0
    1.0362  -53.7732   24.0482 H   0  0  0  0  0  0  0  0  0  0  0  0
    1.9151  -54.7774   21.8009 H   0  0  0  0  0  0  0  0  0  0  0  0
    0.2110  -50.7405   21.9809 H   0  0  0  0  0  0  0  0  0  0  0  0
  1  2  2  0  0  0  0
  2  3  1  0  0  0  0
  2 23  1  0  0  0  0
  3  4  2  0  0  0  0
  4  5  1  0  0  0  0
  4  7  1  0  0  0  0
  5  6  2  0  0  0  0
  5 24  1  0  0  0  0
  6 13  1  0  0  0  0
  6  1  1  0  0  0  0
  7  8  1  0  0  0  0
  8  9  1  0  0  0  0
  8 25  1  0  0  0  0
  8 26  1  0  0  0  0
  9 10  1  0  0  0  0
  9  3  1  0  0  0  0
  9 27  1  1  0  0  0
 10 28  1  0  0  0  0
 10 29  1  0  0  0  0
 10 30  1  0  0  0  0
 11 12  3  0  0  0  0
 12  1  1  0  0  0  0
 13 14  1  0  0  0  0
 13 31  1  0  0  0  0
 14 15  2  0  0  0  0
 15 16  1  0  0  0  0
 15 32  1  0  0  0  0
 16 17  2  0  0  0  0
 17 21  1  0  0  0  0
 17 18  1  0  0  0  0
 18 19  1  0  0  0  0
 18 20  2  0  0  0  0
 20 14  1  0  0  0  0
 20 33  1  0  0  0  0
 21 22  3  0  0  0  0
M  CHG  1  10   1
M  END
$$$$

 OpenBabel09092411563D

 44 46  0  0  0  0  0  0  0  0999 V2000
   -0.9746  -50.6606   23.1804 C   0  0  0  0  0  0  0  0  0  0  0  0
   -0.1264  -51.6067   22.3833 N   0  0  0  0  0  0  0  0  0  0  0  0
    0.5262  -51.1422   21.1151 C   0  0  0  0  0  0  0  0  0  0  0  0
    0.3307  -49.7316   20.6440 N   0  0  0  0  0  0  0  0  0  0  0  0
   -0.5175  -48.7854   21.4412 C   0  0  0  0  0  0  0  0  0  0  0  0
   -0.7129  -47.3748   20.9701 C   0  0  0  0  0  0  0  0  0  0  0  0
   -1.5611  -46.4287   21.7673 C   0  0  0  0  0  0  0  0  0  0  0  0
   -2.2137  -46.8932   23.0355 C   0  0  0  0  0  0  0  0  0  0  0  0
   -2.0182  -48.3038   23.5065 C   0  0  0  0  0  0  0  0  0  0  0  0
   -1.1701  -49.2499   22.7094 C   0  0  0  0  0  0  0  0  0  0  0  0
   -1.6272  -51.1250   24.4486 N   0  0  0  0  0  0  0  0  0  0  0  0
   -3.0053  -51.7163   24.4100 C   0  0  0  0  0  0  0  0  0  0  0  0
   -3.6579  -52.1808   25.6782 N   0  0  0  0  0  0  0  0  0  0  0  0
   -3.7306  -51.8431   23.1032 O   0  0  0  0  0  0  0  0  0  0  0  0
   -0.9018  -50.9983   25.7554 C   0  0  0  0  0  0  0  0  0  0  0  0
    0.1102  -52.0309   26.1547 C   0  0  0  0  0  0  0  0  0  0  0  0
    2.4721  -51.0331   25.7356 C   0  0  0  0  0  0  0  0  0  0  0  0
    1.4514  -51.6051   26.6742 N   0  3  0  0  0  0  0  0  0  0  0  0
    1.7718  -51.7511   28.1323 C   0  0  0  0  0  0  0  0  0  0  0  0
    1.3744  -52.0884   20.3179 C   0  0  0  0  0  0  0  0  0  0  0  0
    1.9311  -52.5382   18.9997 C   0  0  0  0  0  0  0  0  0  0  0  0
    2.2866  -53.2775   20.2555 C   0  0  0  0  0  0  0  0  0  0  0  0
   -0.2638  -47.0552   20.0976 H   0  0  0  0  0  0  0  0  0  0  0  0
   -1.6957  -45.4582   21.4432 H   0  0  0  0  0  0  0  0  0  0  0  0
   -2.7972  -46.2423   23.5840 H   0  0  0  0  0  0  0  0  0  0  0  0
   -2.4672  -48.6234   24.3790 H   0  0  0  0  0  0  0  0  0  0  0  0
   -3.1818  -52.0976   26.5359 H   0  0  0  0  0  0  0  0  0  0  0  0
   -4.5623  -52.5689   25.6529 H   0  0  0  0  0  0  0  0  0  0  0  0
   -1.6476  -50.9839   26.5225 H   0  0  0  0  0  0  0  0  0  0  0  0
   -0.3130  -50.1144   25.6251 H   0  0  0  0  0  0  0  0  0  0  0  0
    0.2914  -52.6360   25.2910 H   0  0  0  0  0  0  0  0  0  0  0  0
   -0.3423  -52.5044   27.0009 H   0  0  0  0  0  0  0  0  0  0  0  0
    3.3600  -50.7885   26.2803 H   0  0  0  0  0  0  0  0  0  0  0  0
    2.0798  -50.1492   25.2776 H   0  0  0  0  0  0  0  0  0  0  0  0
    2.7046  -51.7535   24.9794 H   0  0  0  0  0  0  0  0  0  0  0  0
    1.8897  -52.5244   26.7297 H   0  0  0  0  0  0  0  0  0  0  0  0
    1.4537  -50.8744   28.6569 H   0  0  0  0  0  0  0  0  0  0  0  0
    2.8273  -51.8767   28.2547 H   0  0  0  0  0  0  0  0  0  0  0  0
    1.2629  -52.6063   28.5254 H   0  0  0  0  0  0  0  0  0  0  0  0
    0.7695  -51.4133   20.8865 H   0  0  0  0  0  0  0  0  0  0  0  0
    2.6692  -51.9458   18.5005 H   0  0  0  0  0  0  0  0  0  0  0  0
    1.5107  -52.8111   18.0543 H   0  0  0  0  0  0  0  0  0  0  0  0
    3.2783  -53.2125   20.6521 H   0  0  0  0  0  0  0  0  0  0  0  0
    2.2248  -54.2962   20.5770 H   0  0  0  0  0  0  0  0  0  0  0  0
  1  2  2  0  0  0  0
  2  3  1  0  0  0  0
  3 20  1  0  0  0  0
  3  4  2  0  0  0  0
  4  5  1  0  0  0  0
  5  6  2  0  0  0  0
  6  7  1  0  0  0  0
  6 23  1  0  0  0  0
  7  8  2  0  0  0  0
  7 24  1  0  0  0  0
  8  9  1  0  0  0  0
  8 25  1  0  0  0  0
  9 10  2  0  0  0  0
  9 26  1  0  0  0  0
 10  1  1  0  0  0  0
 10  5  1  0  0  0  0
 11 12  1  0  0  0  0
 11  1  1  0  0  0  0
 12 13  1  0  0  0  0
 12 14  2  0  0  0  0
 13 27  1  0  0  0  0
 13 28  1  0  0  0  0
 15 11  1  0  0  0  0
 15 29  1  0  0  0  0
 15 30  1  0  0  0  0
 16 15  1  0  0  0  0
 16 31  1  0  0  0  0
 16 32  1  0  0  0  0
 17 18  1  0  0  0  0
 17 33  1  0  0  0  0
 17 34  1  0  0  0  0
 17 35  1  0  0  0  0
 18 19  1  0  0  0  0
 18 16  1  0  0  0  0
 18 36  1  0  0  0  0
 19 37  1  0  0  0  0
 19 38  1  0  0  0  0
 19 39  1  0  0  0  0
 20 21  1  0  0  0  0
 20 40  1  0  0  0  0
 21 22  1  0  0  0  0
 21 41  1  0  0  0  0
 21 42  1  0  0  0  0
 22 20  1  0  0  0  0
 22 43  1  0  0  0  0
 22 44  1  0  0  0  0
M  CHG  1  18   1
M  END
$$$$

 OpenBabel09092411563D

 60 63  0  0  0  0  0  0  0  0999 V2000
   -2.2491  -48.8550   22.4154 C   0  0  2  0  0  0  0  0  0  0  0  0
   -1.9247  -47.4685   21.9440 C   0  0  0  0  0  0  0  0  0  0  0  0
   -0.7928  -47.2480   20.9848 C   0  0  0  0  0  0  0  0  0  0  0  0
    0.0147  -48.4141   20.4969 C   0  0  0  0  0  0  0  0  0  0  0  0
   -0.3097  -49.8007   20.9682 N   0  0  0  0  0  0  0  0  0  0  0  0
   -1.4416  -50.0212   21.9275 C   0  0  0  0  0  0  0  0  0  0  0  0
    0.4978  -50.9668   20.4802 C   0  0  0  0  0  0  0  0  0  0  0  0
    1.0062  -50.9890   19.0691 N   0  0  0  0  0  0  0  0  0  0  0  0
    1.8137  -52.1550   18.5811 C   0  0  0  0  0  0  0  0  0  0  0  0
    2.1130  -53.2989   19.5041 N   0  0  0  0  0  0  0  0  0  0  0  0
    1.6046  -53.2767   20.9152 C   0  0  0  0  0  0  0  0  0  0  0  0
    0.7971  -52.1107   21.4032 C   0  0  0  0  0  0  0  0  0  0  0  0
    0.4327  -52.3663   22.8357 C   0  0  0  0  0  0  0  0  0  0  0  0
    1.0150  -53.6903   23.2329 C   0  0  0  0  0  0  0  0  0  0  0  0
    1.7393  -54.2530   22.0460 C   0  0  0  0  0  0  0  0  0  0  0  0
    2.3221  -52.1772   17.1700 C   0  0  0  0  0  0  0  0  0  0  0  0
    3.4158  -52.4757   16.1878 C   0  0  0  0  0  0  0  0  0  0  0  0
    2.1089  -51.9172   15.7082 C   0  0  0  0  0  0  0  0  0  0  0  0
   -4.6989  -49.5884   22.8746 C   0  0  0  0  0  0  0  0  0  0  0  0
   -3.3810  -49.0754   23.3747 N   0  0  0  0  0  0  0  0  0  0  0  0
   -3.1950  -48.7829   24.8340 C   0  0  0  0  0  0  0  0  0  0  0  0
   -1.8771  -48.2700   25.3342 O   0  0  0  0  0  0  0  0  0  0  0  0
   -4.3269  -49.0033   25.7935 N   0  0  0  0  0  0  0  0  0  0  0  0
   -4.1409  -48.7108   27.2528 C   0  0  0  0  0  0  0  0  0  0  0  0
   -3.5161  -50.0610   27.4439 C   0  0  0  0  0  0  0  0  0  0  0  0
   -4.7657  -47.3605   27.0617 C   0  0  0  0  0  0  0  0  0  0  0  0
   -3.9549  -48.4182   28.7122 C   0  0  0  0  0  0  0  0  0  0  0  0
   -2.0784  -47.9715   22.9944 H   0  0  0  0  0  0  0  0  0  0  0  0
   -1.7076  -46.8885   22.8166 H   0  0  0  0  0  0  0  0  0  0  0  0
   -2.7874  -47.1946   21.3734 H   0  0  0  0  0  0  0  0  0  0  0  0
   -0.1094  -46.5773   21.4623 H   0  0  0  0  0  0  0  0  0  0  0  0
   -1.2844  -46.9017   20.0997 H   0  0  0  0  0  0  0  0  0  0  0  0
    1.0306  -48.2236   20.7735 H   0  0  0  0  0  0  0  0  0  0  0  0
   -0.2121  -48.4502   19.4518 H   0  0  0  0  0  0  0  0  0  0  0  0
   -1.0254  -50.4926   22.7932 H   0  0  0  0  0  0  0  0  0  0  0  0
   -2.1459  -50.5844   21.3516 H   0  0  0  0  0  0  0  0  0  0  0  0
   -0.6318  -52.3916   22.9406 H   0  0  0  0  0  0  0  0  0  0  0  0
    0.8172  -51.5883   23.4616 H   0  0  0  0  0  0  0  0  0  0  0  0
    0.2324  -54.3567   23.5301 H   0  0  0  0  0  0  0  0  0  0  0  0
    1.6881  -53.5685   24.0557 H   0  0  0  0  0  0  0  0  0  0  0  0
    1.3074  -55.1918   21.7686 H   0  0  0  0  0  0  0  0  0  0  0  0
    2.7714  -54.4101   22.2805 H   0  0  0  0  0  0  0  0  0  0  0  0
    1.9595  -52.1613   18.1766 H   0  0  0  0  0  0  0  0  0  0  0  0
    3.6765  -53.4902   15.9693 H   0  0  0  0  0  0  0  0  0  0  0  0
    4.4424  -52.1906   16.0888 H   0  0  0  0  0  0  0  0  0  0  0  0
    1.4373  -52.5333   15.1476 H   0  0  0  0  0  0  0  0  0  0  0  0
    1.8170  -51.0687   15.1253 H   0  0  0  0  0  0  0  0  0  0  0  0
   -4.6450  -49.7383   21.8165 H   0  0  0  0  0  0  0  0  0  0  0  0
   -5.4660  -48.8758   23.0952 H   0  0  0  0  0  0  0  0  0  0  0  0
   -4.9258  -50.5170   23.3553 H   0  0  0  0  0  0  0  0  0  0  0  0
   -5.1919  -49.3400   25.4653 H   0  0  0  0  0  0  0  0  0  0  0  0
   -3.4926  -50.5788   26.5079 H   0  0  0  0  0  0  0  0  0  0  0  0
   -4.0918  -50.6239   28.1486 H   0  0  0  0  0  0  0  0  0  0  0  0
   -2.5182  -49.9434   27.8116 H   0  0  0  0  0  0  0  0  0  0  0  0
   -5.0393  -47.2362   26.0348 H   0  0  0  0  0  0  0  0  0  0  0  0
   -4.0649  -46.6008   27.3385 H   0  0  0  0  0  0  0  0  0  0  0  0
   -5.6386  -47.2813   27.6755 H   0  0  0  0  0  0  0  0  0  0  0  0
   -3.4905  -49.2567   29.1877 H   0  0  0  0  0  0  0  0  0  0  0  0
   -4.9076  -48.2348   29.1634 H   0  0  0  0  0  0  0  0  0  0  0  0
   -3.3339  -47.5543   28.8265 H   0  0  0  0  0  0  0  0  0  0  0  0
  1 20  1  0  0  0  0
  1  2  1  0  0  0  0
  1 28  1  1  0  0  0
  2  3  1  0  0  0  0
  2 29  1  0  0  0  0
  2 30  1  0  0  0  0
  3  4  1  0  0  0  0
  3 31  1  0  0  0  0
  3 32  1  0  0  0  0
  4  5  1  0  0  0  0
  4 33  1  0  0  0  0
  4 34  1  0  0  0  0
  5  7  1  0  0  0  0
  5  6  1  0  0  0  0
  6  1  1  0  0  0  0
  6 35  1  0  0  0  0
  6 36  1  0  0  0  0
  7  8  2  0  0  0  0
  8  9  1  0  0  0  0
  9 16  1  0  0  0  0
  9 10  2  0  0  0  0
 10 11  1  0  0  0  0
 11 12  2  0  0  0  0
 12 13  1  0  0  0  0
 12  7  1  0  0  0  0
 13 14  1  0  0  0  0
 13 37  1  0  0  0  0
 13 38  1  0  0  0  0
 14 15  1  0  0  0  0
 14 39  1  0  0  0  0
 14 40  1  0  0  0  0
 15 11  1  0  0  0  0
 15 41  1  0  0  0  0
 15 42  1  0  0  0  0
 16 17  1  0  0  0  0
 16 43  1  0  0  0  0
 17 18  1  0  0  0  0
 17 44  1  0  0  0  0
 17 45  1  0  0  0  0
 18 16  1  0  0  0  0
 18 46  1  0  0  0  0
 18 47  1  0  0  0  0
 19 20  1  0  0  0  0
 19 48  1  0  0  0  0
 19 49  1  0  0  0  0
 19 50  1  0  0  0  0
 20 21  1  0  0  0  0
 21 22  2  0  0  0  0
 21 23  1  0  0  0  0
 23 24  1  0  0  0  0
 23 51  1  0  0  0  0
 24 25  1  0  0  0  0
 24 26  1  0  0  0  0
 24 27  1  0  0  0  0
 25 52  1  0  0  0  0
 25 53  1  0  0  0  0
 25 54  1  0  0  0  0
 26 55  1  0  0  0  0
 26 56  1  0  0  0  0
 26 57  1  0  0  0  0
 27 58  1  0  0  0  0
 27 59  1  0  0  0  0
 27 60  1  0  0  0  0
M  END
$$$$

 OpenBabel09092411563D

 32 34  0  0  0  0  0  0  0  0999 V2000
    1.5049  -53.7896   21.3182 N   0  0  0  0  0  0  0  0  0  0  0  0
    1.1380  -53.2404   22.6650 C   0  0  0  0  0  0  0  0  0  0  0  0
    1.1417  -51.7585   22.8971 C   0  0  0  0  0  0  0  0  0  0  0  0
    0.7748  -51.2092   24.2438 C   0  0  0  0  0  0  0  0  0  0  0  0
    0.4043  -52.1420   25.3586 C   0  0  0  0  0  0  0  0  0  0  0  0
    0.4006  -53.6239   25.1266 C   0  0  0  0  0  0  0  0  0  0  0  0
    0.7675  -54.1731   23.7798 C   0  0  0  0  0  0  0  0  0  0  0  0
    0.0300  -54.5567   26.2413 O   0  0  0  0  0  0  0  0  0  0  0  0
   -0.3368  -54.0075   27.5880 C   0  0  0  0  0  0  0  0  0  0  0  0
   -0.3331  -52.5255   27.8201 C   0  0  0  0  0  0  0  0  0  0  0  0
    0.0374  -51.5928   26.7053 O   0  0  0  0  0  0  0  0  0  0  0  0
    2.0444  -52.1510   17.7442 C   0  0  0  0  0  0  0  0  0  0  0  0
    0.7944  -51.3316   17.6164 C   0  0  0  0  0  0  0  0  0  0  0  0
   -0.2188  -51.3317   18.7226 C   0  0  0  0  0  0  0  0  0  0  0  0
    0.0181  -52.1510   19.9565 C   0  0  0  0  0  0  0  0  0  0  0  0
    1.2680  -52.9703   20.0843 C   0  0  0  0  0  0  0  0  0  0  0  0
    2.2812  -52.9703   18.9782 C   0  0  0  0  0  0  0  0  0  0  0  0
    4.0706  -52.1510   15.5319 C   0  0  0  0  0  0  0  0  0  0  0  0
    3.0575  -52.1510   16.6381 C   0  0  0  0  0  0  0  0  0  0  0  0
    1.9012  -54.6878   21.2441 H   0  0  0  0  0  0  0  0  0  0  0  0
    1.3967  -51.1168   22.1302 H   0  0  0  0  0  0  0  0  0  0  0  0
    0.7773  -50.1896   24.4034 H   0  0  0  0  0  0  0  0  0  0  0  0
    0.7650  -55.1927   23.6202 H   0  0  0  0  0  0  0  0  0  0  0  0
    0.3483  -54.4321   28.2917 H   0  0  0  0  0  0  0  0  0  0  0  0
   -1.3695  -54.2694   27.6874 H   0  0  0  0  0  0  0  0  0  0  0  0
    0.3536  -52.3397   28.6194 H   0  0  0  0  0  0  0  0  0  0  0  0
   -1.3645  -52.3014   27.9958 H   0  0  0  0  0  0  0  0  0  0  0  0
    0.6315  -50.7678   16.7675 H   0  0  0  0  0  0  0  0  0  0  0  0
   -1.0788  -50.7681   18.6347 H   0  0  0  0  0  0  0  0  0  0  0  0
   -0.6789  -52.1510   20.7176 H   0  0  0  0  0  0  0  0  0  0  0  0
    3.1412  -53.5340   19.0662 H   0  0  0  0  0  0  0  0  0  0  0  0
    4.7419  -52.1510   14.7989 H   0  0  0  0  0  0  0  0  0  0  0  0
  1  2  1  0  0  0  0
  1 20  1  0  0  0  0
  2  3  2  0  0  0  0
  3  4  1  0  0  0  0
  3 21  1  0  0  0  0
  4  5  2  0  0  0  0
  4 22  1  0  0  0  0
  5  6  1  0  0  0  0
  6  7  2  0  0  0  0
  6  8  1  0  0  0  0
  7  2  1  0  0  0  0
  7 23  1  0  0  0  0
  8  9  1  0  0  0  0
  9 10  1  0  0  0  0
  9 24  1  0  0  0  0
  9 25  1  0  0  0  0
 10 11  1  0  0  0  0
 10 26  1  0  0  0  0
 10 27  1  0  0  0  0
 11  5  1  0  0  0  0
 12 13  2  0  0  0  0
 13 14  1  0  0  0  0
 13 28  1  0  0  0  0
 14 15  2  0  0  0  0
 14 29  1  0  0  0  0
 15 16  1  0  0  0  0
 15 30  1  0  0  0  0
 16  1  1  0  0  0  0
 16 17  2  0  0  0  0
 17 12  1  0  0  0  0
 17 31  1  0  0  0  0
 18 19  3  0  0  0  0
 18 32  1  0  0  0  0
 19 12  1  0  0  0  0
M  END
$$$$

 OpenBabel09092411563D

 46 48  0  0  0  0  0  0  0  0999 V2000
    1.8410  -52.5866   20.0563 C   0  0  0  0  0  0  0  0  0  0  0  0
    1.3450  -51.3274   20.7031 C   0  0  0  0  0  0  0  0  0  0  0  0
    0.6898  -51.3846   22.0512 C   0  0  0  0  0  0  0  0  0  0  0  0
    0.5306  -52.7010   22.7525 C   0  0  0  0  0  0  0  0  0  0  0  0
    1.0266  -53.9602   22.1056 N   0  0  0  0  0  0  0  0  0  0  0  0
    1.6818  -53.9030   20.7575 N   0  0  0  0  0  0  0  0  0  0  0  0
    0.2805  -50.7840   15.2018 C   0  0  0  0  0  0  0  0  0  0  0  0
    1.6743  -51.3086   15.0225 C   0  0  2  0  0  0  0  0  0  0  0  0
    2.3295  -51.2514   13.6744 C   0  0  0  0  0  0  0  0  0  0  0  0
    3.7233  -51.7759   13.4950 N   0  3  2  0  0  0  0  0  0  0  0  0
    4.3785  -51.7187   12.1469 C   0  0  0  0  0  0  0  0  0  0  0  0
    4.4618  -52.3577   14.6638 C   0  0  0  0  0  0  0  0  0  0  0  0
    3.8066  -52.4149   16.0118 C   0  0  0  0  0  0  0  0  0  0  0  0
    2.4128  -51.8904   16.1912 N   0  0  0  0  0  0  0  0  0  0  0  0
    1.7576  -51.9476   17.5394 C   0  0  0  0  0  0  0  0  0  0  0  0
    0.3638  -51.4230   17.7187 O   0  0  0  0  0  0  0  0  0  0  0  0
    2.4962  -52.5294   18.7081 N   0  0  0  0  0  0  0  0  0  0  0  0
   -0.1246  -52.7582   24.1006 O   0  0  0  0  0  0  0  0  0  0  0  0
   -1.0046  -51.6318   24.5553 C   0  0  0  0  0  0  0  0  0  0  0  0
   -0.4494  -50.5576   25.4430 C   0  0  0  0  0  0  0  0  0  0  0  0
    0.9858  -50.6100   25.8761 F   0  0  0  0  0  0  0  0  0  0  0  0
   -1.3294  -49.4312   25.8976 C   0  0  0  0  0  0  0  0  0  0  0  0
   -2.7646  -49.3788   25.4645 C   0  0  0  0  0  0  0  0  0  0  0  0
   -3.3197  -50.4529   24.5768 C   0  0  0  0  0  0  0  0  0  0  0  0
   -2.4397  -51.5794   24.1222 C   0  0  0  0  0  0  0  0  0  0  0  0
   -2.9948  -52.6535   23.2345 F   0  0  0  0  0  0  0  0  0  0  0  0
    1.4545  -50.4217   20.2206 H   0  0  0  0  0  0  0  0  0  0  0  0
    0.3485  -50.5183   22.4962 H   0  0  0  0  0  0  0  0  0  0  0  0
   -0.0832  -50.4111   14.2672 H   0  0  0  0  0  0  0  0  0  0  0  0
    0.2869  -49.9936   15.9230 H   0  0  0  0  0  0  0  0  0  0  0  0
   -0.3564  -51.5731   15.5432 H   0  0  0  0  0  0  0  0  0  0  0  0
    2.2024  -50.7668   15.7791 H   0  0  0  0  0  0  0  0  0  0  0  0
    2.3469  -50.2220   13.3829 H   0  0  0  0  0  0  0  0  0  0  0  0
    1.7375  -51.9197   13.0847 H   0  0  0  0  0  0  0  0  0  0  0  0
    4.3188  -51.1623   12.9388 H   0  0  0  0  0  0  0  0  0  0  0  0
    4.1431  -52.6065   11.5980 H   0  0  0  0  0  0  0  0  0  0  0  0
    5.4390  -51.6452   12.2686 H   0  0  0  0  0  0  0  0  0  0  0  0
    4.0207  -50.8635   11.6125 H   0  0  0  0  0  0  0  0  0  0  0  0
    5.3575  -51.7840   14.7798 H   0  0  0  0  0  0  0  0  0  0  0  0
    4.5689  -53.3887   14.3985 H   0  0  0  0  0  0  0  0  0  0  0  0
    4.4324  -51.8647   16.6830 H   0  0  0  0  0  0  0  0  0  0  0  0
    3.6989  -53.4647   16.1885 H   0  0  0  0  0  0  0  0  0  0  0  0
    3.4110  -52.8737   18.5903 H   0  0  0  0  0  0  0  0  0  0  0  0
   -0.9474  -48.6922   26.5084 H   0  0  0  0  0  0  0  0  0  0  0  0
   -3.3700  -48.6038   25.7773 H   0  0  0  0  0  0  0  0  0  0  0  0
   -4.3071  -50.4169   24.2788 H   0  0  0  0  0  0  0  0  0  0  0  0
  1  2  2  0  0  0  0
  2  3  1  0  0  0  0
  2 27  1  0  0  0  0
  3  4  2  0  0  0  0
  3 28  1  0  0  0  0
  4 18  1  0  0  0  0
  4  5  1  0  0  0  0
  5  6  2  0  0  0  0
  6  1  1  0  0  0  0
  7 29  1  0  0  0  0
  7 30  1  0  0  0  0
  7 31  1  0  0  0  0
  8  7  1  0  0  0  0
  8  9  1  0  0  0  0
  8 32  1  1  0  0  0
  9 10  1  0  0  0  0
  9 33  1  0  0  0  0
  9 34  1  0  0  0  0
 10 11  1  0  0  0  0
 10 12  1  0  0  0  0
 10 35  1  1  0  0  0
 11 36  1  0  0  0  0
 11 37  1  0  0  0  0
 11 38  1  0  0  0  0
 12 13  1  0  0  0  0
 12 39  1  0  0  0  0
 12 40  1  0  0  0  0
 13 14  1  0  0  0  0
 13 41  1  0  0  0  0
 13 42  1  0  0  0  0
 14 15  1  0  0  0  0
 14  8  1  0  0  0  0
 15 16  2  0  0  0  0
 15 17  1  0  0  0  0
 17  1  1  0  0  0  0
 17 43  1  0  0  0  0
 18 19  1  0  0  0  0
 19 20  2  0  0  0  0
 20 21  1  0  0  0  0
 20 22  1  0  0  0  0
 22 23  2  0  0  0  0
 22 44  1  0  0  0  0
 23 24  1  0  0  0  0
 23 45  1  0  0  0  0
 24 25  2  0  0  0  0
 24 46  1  0  0  0  0
 25 26  1  0  0  0  0
 25 19  1  0  0  0  0
M  CHG  1  10   1
M  END
$$$$

 OpenBabel09092411563D

 49 51  0  0  0  0  0  0  0  0999 V2000
    0.4272  -51.0291   21.0977 C   0  0  2  0  0  0  0  0  0  0  0  0
   -0.2962  -49.8695   21.7156 C   0  0  0  0  0  0  0  0  0  0  0  0
   -0.6636  -48.6815   20.8767 C   0  0  2  0  0  0  0  0  0  0  0  0
   -1.3870  -47.5218   21.4947 C   0  0  0  0  0  0  0  0  0  0  0  0
   -0.3076  -48.6533   19.4199 C   0  0  0  0  0  0  0  0  0  0  0  0
    0.4158  -49.8129   18.8019 C   0  0  0  0  0  0  0  0  0  0  0  0
    0.7832  -51.0008   19.6408 N   0  0  0  0  0  0  0  0  0  0  0  0
    1.5066  -52.1605   19.0229 C   0  0  0  0  0  0  0  0  0  0  0  0
    1.8740  -53.3484   19.8618 O   0  0  0  0  0  0  0  0  0  0  0  0
    1.8626  -52.1322   17.5660 C   0  0  2  0  0  0  0  0  0  0  0  0
    1.4442  -52.0503   16.1279 C   0  0  0  0  0  0  0  0  0  0  0  0
    2.8976  -52.1652   16.4808 C   0  0  1  0  0  0  0  0  0  0  0  0
    4.3343  -52.2505   16.0580 C   0  0  0  0  0  0  0  0  0  0  0  0
    0.7946  -52.2171   21.9366 C   0  0  0  0  0  0  0  0  0  0  0  0
    1.3988  -52.0180   23.2950 N   0  0  0  0  0  0  0  0  0  0  0  0
   -0.7888  -52.2679   26.5969 C   0  0  0  0  0  0  0  0  0  0  0  0
   -0.6312  -53.7214   26.9320 N   0  0  0  0  0  0  0  0  0  0  0  0
    0.2030  -54.6072   26.0548 C   0  0  0  0  0  0  0  0  0  0  0  0
    0.8797  -54.0394   24.8425 N   0  0  0  0  0  0  0  0  0  0  0  0
    0.7221  -52.5858   24.5074 C   0  0  0  0  0  0  0  0  0  0  0  0
   -0.1121  -51.7001   25.3846 C   0  0  0  0  0  0  0  0  0  0  0  0
   -0.2697  -50.2465   25.0495 F   0  0  0  0  0  0  0  0  0  0  0  0
   -3.0712  -51.1588   27.1538 C   0  0  0  0  0  0  0  0  0  0  0  0
   -1.6230  -51.3821   27.4741 O   0  0  0  0  0  0  0  0  0  0  0  0
    1.1155  -50.7108   21.8525 H   0  0  0  0  0  0  0  0  0  0  0  0
    0.3225  -49.5073   22.5099 H   0  0  0  0  0  0  0  0  0  0  0  0
   -1.2454  -50.2855   21.9820 H   0  0  0  0  0  0  0  0  0  0  0  0
   -0.9502  -47.6506   20.8685 H   0  0  0  0  0  0  0  0  0  0  0  0
   -1.8712  -47.8416   22.3937 H   0  0  0  0  0  0  0  0  0  0  0  0
   -2.1189  -47.1510   20.8079 H   0  0  0  0  0  0  0  0  0  0  0  0
   -0.6869  -46.7456   21.7233 H   0  0  0  0  0  0  0  0  0  0  0  0
    0.3064  -47.7901   19.2687 H   0  0  0  0  0  0  0  0  0  0  0  0
   -1.2605  -48.6705   18.9335 H   0  0  0  0  0  0  0  0  0  0  0  0
    1.3277  -49.4273   18.3962 H   0  0  0  0  0  0  0  0  0  0  0  0
   -0.2999  -50.2103   18.1128 H   0  0  0  0  0  0  0  0  0  0  0  0
    1.6087  -52.1523   18.6052 H   0  0  0  0  0  0  0  0  0  0  0  0
    1.0603  -51.1326   15.7339 H   0  0  0  0  0  0  0  0  0  0  0  0
    0.7716  -52.6000   15.5031 H   0  0  0  0  0  0  0  0  0  0  0  0
    3.9224  -52.2262   16.1792 H   0  0  0  0  0  0  0  0  0  0  0  0
    4.7718  -51.2743   16.0822 H   0  0  0  0  0  0  0  0  0  0  0  0
    4.3909  -52.6421   15.0639 H   0  0  0  0  0  0  0  0  0  0  0  0
    4.8651  -52.8959   16.7263 H   0  0  0  0  0  0  0  0  0  0  0  0
    1.4955  -52.7919   21.3680 H   0  0  0  0  0  0  0  0  0  0  0  0
   -0.1515  -52.6682   22.1519 H   0  0  0  0  0  0  0  0  0  0  0  0
    2.2395  -51.5147   23.3909 H   0  0  0  0  0  0  0  0  0  0  0  0
    0.3114  -55.6073   26.2853 H   0  0  0  0  0  0  0  0  0  0  0  0
   -3.5010  -50.5045   27.8832 H   0  0  0  0  0  0  0  0  0  0  0  0
   -3.5879  -52.0957   27.1665 H   0  0  0  0  0  0  0  0  0  0  0  0
   -3.1578  -50.7169   26.1832 H   0  0  0  0  0  0  0  0  0  0  0  0
  1 14  1  0  0  0  0
  1  2  1  0  0  0  0
  1 25  1  1  0  0  0
  2  3  1  0  0  0  0
  2 26  1  0  0  0  0
  2 27  1  0  0  0  0
  3  4  1  0  0  0  0
  3  5  1  0  0  0  0
  3 28  1  1  0  0  0
  4 29  1  0  0  0  0
  4 30  1  0  0  0  0
  4 31  1  0  0  0  0
  5  6  1  0  0  0  0
  5 32  1  0  0  0  0
  5 33  1  0  0  0  0
  6  7  1  0  0  0  0
  6 34  1  0  0  0  0
  6 35  1  0  0  0  0
  7  8  1  0  0  0  0
  7  1  1  0  0  0  0
  8  9  2  0  0  0  0
 10  8  1  0  0  0  0
 10 11  1  0  0  0  0
 10 36  1  1  0  0  0
 11 12  1  0  0  0  0
 11 37  1  0  0  0  0
 11 38  1  0  0  0  0
 12 13  1  0  0  0  0
 12 10  1  0  0  0  0
 12 39  1  6  0  0  0
 13 40  1  0  0  0  0
 13 41  1  0  0  0  0
 13 42  1  0  0  0  0
 14 43  1  0  0  0  0
 14 44  1  0  0  0  0
 15 14  1  0  0  0  0
 15 45  1  0  0  0  0
 16 17  2  0  0  0  0
 17 18  1  0  0  0  0
 18 19  2  0  0  0  0
 18 46  1  0  0  0  0
 19 20  1  0  0  0  0
 20 15  1  0  0  0  0
 20 21  2  0  0  0  0
 21 22  1  0  0  0  0
 21 16  1  0  0  0  0
 23 24  1  0  0  0  0
 23 47  1  0  0  0  0
 23 48  1  0  0  0  0
 23 49  1  0  0  0  0
 24 16  1  0  0  0  0
M  END
$$$$

 OpenBabel09092411563D

 54 56  0  0  0  0  0  0  0  0999 V2000
    0.7305  -52.3868   22.0368 C   0  0  0  0  0  0  0  0  0  0  0  0
    0.5768  -53.3877   20.9301 C   0  0  0  0  0  0  0  0  0  0  0  0
    0.4922  -52.9242   19.5060 C   0  0  0  0  0  0  0  0  0  0  0  0
    0.5613  -51.4597   19.1887 C   0  0  0  0  0  0  0  0  0  0  0  0
    0.7149  -50.4589   20.2953 C   0  0  0  0  0  0  0  0  0  0  0  0
    0.7995  -50.9225   21.7194 C   0  0  0  0  0  0  0  0  0  0  0  0
    0.4766  -50.9961   17.7646 C   0  0  0  0  0  0  0  0  0  0  0  0
   -0.6915  -50.1708   17.3127 O   0  0  0  0  0  0  0  0  0  0  0  0
    1.5602  -51.3580   16.7924 N   0  0  0  0  0  0  0  0  0  0  0  0
    2.7283  -52.1833   17.2444 C   0  0  0  0  0  0  0  0  0  0  0  0
    3.8118  -52.5451   16.2722 C   0  0  0  0  0  0  0  0  0  0  0  0
    3.7272  -52.0816   14.8482 N   0  3  2  0  0  0  0  0  0  0  0  0
    4.8108  -52.4434   13.8760 C   0  0  0  0  0  0  0  0  0  0  0  0
    2.5591  -51.2562   14.3962 C   0  0  0  0  0  0  0  0  0  0  0  0
    1.4756  -50.8944   15.3684 C   0  0  1  0  0  0  0  0  0  0  0  0
    0.3074  -50.0690   14.9165 C   0  0  0  0  0  0  0  0  0  0  0  0
    0.8151  -52.8504   23.4608 N   0  0  0  0  0  0  0  0  0  0  0  0
   -0.0260  -52.5344   25.8986 C   0  0  0  0  0  0  0  0  0  0  0  0
   -1.1309  -52.2100   26.8598 C   0  0  0  0  0  0  0  0  0  0  0  0
   -0.8671  -52.2184   28.3364 F   0  0  0  0  0  0  0  0  0  0  0  0
   -2.4997  -51.8772   26.3444 C   0  0  0  0  0  0  0  0  0  0  0  0
   -2.7636  -51.8688   24.8679 C   0  0  0  0  0  0  0  0  0  0  0  0
   -1.6587  -52.1932   23.9067 C   0  0  0  0  0  0  0  0  0  0  0  0
   -1.9225  -52.1848   22.4301 F   0  0  0  0  0  0  0  0  0  0  0  0
   -0.2899  -52.5260   24.4221 C   0  0  0  0  0  0  0  0  0  0  0  0
    1.3428  -52.8672   26.4140 O   0  0  0  0  0  0  0  0  0  0  0  0
    2.7585  -50.8172   25.6771 C   0  0  0  0  0  0  0  0  0  0  0  0
    2.3070  -51.7673   26.7464 C   0  0  0  0  0  0  0  0  0  0  0  0
    0.5293  -54.3952   21.1485 H   0  0  0  0  0  0  0  0  0  0  0  0
    0.3865  -53.6128   18.7446 H   0  0  0  0  0  0  0  0  0  0  0  0
    0.7624  -49.4514   20.0769 H   0  0  0  0  0  0  0  0  0  0  0  0
    0.9052  -50.2339   22.4808 H   0  0  0  0  0  0  0  0  0  0  0  0
    2.3301  -53.1029   17.6195 H   0  0  0  0  0  0  0  0  0  0  0  0
    3.2270  -51.5427   17.9414 H   0  0  0  0  0  0  0  0  0  0  0  0
    3.8598  -53.6137   16.2469 H   0  0  0  0  0  0  0  0  0  0  0  0
    4.6659  -52.0231   16.6504 H   0  0  0  0  0  0  0  0  0  0  0  0
    3.2778  -52.8201   15.3895 H   0  0  0  0  0  0  0  0  0  0  0  0
    5.1706  -51.5569   13.3968 H   0  0  0  0  0  0  0  0  0  0  0  0
    4.4197  -53.1135   13.1392 H   0  0  0  0  0  0  0  0  0  0  0  0
    5.6150  -52.9178   14.3986 H   0  0  0  0  0  0  0  0  0  0  0  0
    2.0912  -51.7940   13.5982 H   0  0  0  0  0  0  0  0  0  0  0  0
    3.0024  -50.3116   14.1592 H   0  0  0  0  0  0  0  0  0  0  0  0
    2.2698  -50.2731   15.7263 H   0  0  0  0  0  0  0  0  0  0  0  0
   -0.4703  -50.7142   14.5645 H   0  0  0  0  0  0  0  0  0  0  0  0
    0.6156  -49.4175   14.1256 H   0  0  0  0  0  0  0  0  0  0  0  0
   -0.0565  -49.4866   15.7370 H   0  0  0  0  0  0  0  0  0  0  0  0
    1.5958  -53.3676   23.7646 H   0  0  0  0  0  0  0  0  0  0  0  0
   -3.2599  -51.6540   27.0057 H   0  0  0  0  0  0  0  0  0  0  0  0
   -3.7053  -51.6398   24.5133 H   0  0  0  0  0  0  0  0  0  0  0  0
    3.4393  -50.1060   26.0962 H   0  0  0  0  0  0  0  0  0  0  0  0
    1.9102  -50.3044   25.2743 H   0  0  0  0  0  0  0  0  0  0  0  0
    3.2480  -51.3635   24.8981 H   0  0  0  0  0  0  0  0  0  0  0  0
    1.8492  -51.1760   27.5118 H   0  0  0  0  0  0  0  0  0  0  0  0
    3.2027  -52.2941   27.0015 H   0  0  0  0  0  0  0  0  0  0  0  0
  1  2  2  0  0  0  0
  2  3  1  0  0  0  0
  2 29  1  0  0  0  0
  3  4  2  0  0  0  0
  3 30  1  0  0  0  0
  4  7  1  0  0  0  0
  4  5  1  0  0  0  0
  5  6  2  0  0  0  0
  5 31  1  0  0  0  0
  6  1  1  0  0  0  0
  6 32  1  0  0  0  0
  7  8  2  0  0  0  0
  7  9  1  0  0  0  0
  9 10  1  0  0  0  0
 10 11  1  0  0  0  0
 10 33  1  0  0  0  0
 10 34  1  0  0  0  0
 11 12  1  0  0  0  0
 11 35  1  0  0  0  0
 11 36  1  0  0  0  0
 12 13  1  0  0  0  0
 12 14  1  0  0  0  0
 12 37  1  6  0  0  0
 13 38  1  0  0  0  0
 13 39  1  0  0  0  0
 13 40  1  0  0  0  0
 14 15  1  0  0  0  0
 14 41  1  0  0  0  0
 14 42  1  0  0  0  0
 15 16  1  0  0  0  0
 15  9  1  0  0  0  0
 15 43  1  1  0  0  0
 16 44  1  0  0  0  0
 16 45  1  0  0  0  0
 16 46  1  0  0  0  0
 17  1  1  0  0  0  0
 17 47  1  0  0  0  0
 18 19  2  0  0  0  0
 19 20  1  0  0  0  0
 19 21  1  0  0  0  0
 21 22  2  0  0  0  0
 21 48  1  0  0  0  0
 22 23  1  0  0  0  0
 22 49  1  0  0  0  0
 23 24  1  0  0  0  0
 23 25  2  0  0  0  0
 25 17  1  0  0  0  0
 25 18  1  0  0  0  0
 26 18  1  0  0  0  0
 27 28  1  0  0  0  0
 27 50  1  0  0  0  0
 27 51  1  0  0  0  0
 27 52  1  0  0  0  0
 28 26  1  0  0  0  0
 28 53  1  0  0  0  0
 28 54  1  0  0  0  0
M  CHG  1  12   1
M  END
$$$$

 OpenBabel09092411563D

 45 47  0  0  0  0  0  0  0  0999 V2000
    0.4871  -51.1142   18.7272 C   0  0  0  0  0  0  0  0  0  0  0  0
    0.4485  -49.9273   19.6437 C   0  0  0  0  0  0  0  0  0  0  0  0
    0.6098  -50.1164   21.1229 N   0  0  0  0  0  0  0  0  0  0  0  0
    0.8097  -51.4923   21.6858 C   0  0  0  0  0  0  0  0  0  0  0  0
    0.8483  -52.6792   20.7694 C   0  0  0  0  0  0  0  0  0  0  0  0
    1.0481  -54.0552   21.3322 Cl  0  0  0  0  0  0  0  0  0  0  0  0
    0.6870  -52.4901   19.2900 C   0  0  0  0  0  0  0  0  0  0  0  0
    0.0033  -50.5469   14.2894 C   0  0  0  0  0  0  0  0  0  0  0  0
    1.2827  -51.1043   14.8392 C   0  0  2  0  0  0  0  0  0  0  0  0
    2.4009  -51.4727   13.9097 C   0  0  0  0  0  0  0  0  0  0  0  0
    3.6803  -52.0302   14.4595 N   0  3  1  0  0  0  0  0  0  0  0  0
    4.7985  -52.3985   13.5299 C   0  0  0  0  0  0  0  0  0  0  0  0
    3.8416  -52.2193   15.9387 C   0  0  0  0  0  0  0  0  0  0  0  0
    2.7235  -51.8509   16.8682 C   0  0  0  0  0  0  0  0  0  0  0  0
    1.4440  -51.2934   16.3184 N   0  0  0  0  0  0  0  0  0  0  0  0
    0.3258  -50.9251   17.2480 C   0  0  0  0  0  0  0  0  0  0  0  0
   -0.9537  -50.3676   16.6982 O   0  0  0  0  0  0  0  0  0  0  0  0
    0.9709  -51.6814   23.1650 O   0  0  0  0  0  0  0  0  0  0  0  0
   -0.2254  -51.6009   24.0663 C   0  0  0  0  0  0  0  0  0  0  0  0
   -1.5533  -52.1184   23.5982 C   0  0  0  0  0  0  0  0  0  0  0  0
   -2.7496  -52.0379   24.4994 C   0  0  0  0  0  0  0  0  0  0  0  0
   -2.6181  -51.4399   25.8687 C   0  0  0  0  0  0  0  0  0  0  0  0
   -3.8145  -51.3593   26.7700 F   0  0  0  0  0  0  0  0  0  0  0  0
   -1.2903  -50.9224   26.3368 C   0  0  0  0  0  0  0  0  0  0  0  0
   -0.0940  -51.0029   25.4356 C   0  0  0  0  0  0  0  0  0  0  0  0
    1.2338  -50.4854   25.9037 F   0  0  0  0  0  0  0  0  0  0  0  0
    0.3110  -48.9806   19.2565 H   0  0  0  0  0  0  0  0  0  0  0  0
    0.7136  -53.3067   18.6595 H   0  0  0  0  0  0  0  0  0  0  0  0
    0.0707  -50.4840   13.2234 H   0  0  0  0  0  0  0  0  0  0  0  0
   -0.1636  -49.5707   14.6945 H   0  0  0  0  0  0  0  0  0  0  0  0
   -0.8098  -51.1884   14.5581 H   0  0  0  0  0  0  0  0  0  0  0  0
    0.8122  -50.2570   15.2926 H   0  0  0  0  0  0  0  0  0  0  0  0
    2.6576  -50.5860   13.3687 H   0  0  0  0  0  0  0  0  0  0  0  0
    1.9966  -52.2904   13.3504 H   0  0  0  0  0  0  0  0  0  0  0  0
    3.3681  -52.7307   15.1320 H   0  0  0  0  0  0  0  0  0  0  0  0
    5.0154  -51.5708   12.8874 H   0  0  0  0  0  0  0  0  0  0  0  0
    4.5080  -53.2420   12.9392 H   0  0  0  0  0  0  0  0  0  0  0  0
    5.6696  -52.6453   14.1000 H   0  0  0  0  0  0  0  0  0  0  0  0
    4.6917  -51.6401   16.2333 H   0  0  0  0  0  0  0  0  0  0  0  0
    3.9097  -53.2818   16.0448 H   0  0  0  0  0  0  0  0  0  0  0  0
    3.1131  -51.1199   17.5456 H   0  0  0  0  0  0  0  0  0  0  0  0
    2.4249  -52.7926   17.2792 H   0  0  0  0  0  0  0  0  0  0  0  0
   -1.6438  -52.5298   22.6561 H   0  0  0  0  0  0  0  0  0  0  0  0
   -3.6631  -52.3939   24.1774 H   0  0  0  0  0  0  0  0  0  0  0  0
   -1.1999  -50.5110   27.2789 H   0  0  0  0  0  0  0  0  0  0  0  0
  1  2  2  0  0  0  0
  2  3  1  0  0  0  0
  2 27  1  0  0  0  0
  3  4  2  0  0  0  0
  4 18  1  0  0  0  0
  4  5  1  0  0  0  0
  5  6  1  0  0  0  0
  5  7  2  0  0  0  0
  7  1  1  0  0  0  0
  7 28  1  0  0  0  0
  8 29  1  0  0  0  0
  8 30  1  0  0  0  0
  8 31  1  0  0  0  0
  9  8  1  0  0  0  0
  9 10  1  0  0  0  0
  9 32  1  1  0  0  0
 10 11  1  0  0  0  0
 10 33  1  0  0  0  0
 10 34  1  0  0  0  0
 11 12  1  0  0  0  0
 11 13  1  0  0  0  0
 11 35  1  6  0  0  0
 12 36  1  0  0  0  0
 12 37  1  0  0  0  0
 12 38  1  0  0  0  0
 13 14  1  0  0  0  0
 13 39  1  0  0  0  0
 13 40  1  0  0  0  0
 14 15  1  0  0  0  0
 14 41  1  0  0  0  0
 14 42  1  0  0  0  0
 15 16  1  0  0  0  0
 15  9  1  0  0  0  0
 16 17  2  0  0  0  0
 16  1  1  0  0  0  0
 18 19  1  0  0  0  0
 19 20  2  0  0  0  0
 20 21  1  0  0  0  0
 20 43  1  0  0  0  0
 21 22  2  0  0  0  0
 21 44  1  0  0  0  0
 22 23  1  0  0  0  0
 22 24  1  0  0  0  0
 24 25  2  0  0  0  0
 24 45  1  0  0  0  0
 25 26  1  0  0  0  0
 25 19  1  0  0  0  0
M  CHG  1  11   1
M  END
$$$$

 OpenBabel09092411563D

 52 54  0  0  0  0  0  0  0  0999 V2000
   -0.1494  -51.7799   22.0034 C   0  0  0  0  0  0  0  0  0  0  0  0
    0.3831  -53.0709   21.4558 C   0  0  0  0  0  0  0  0  0  0  0  0
    1.0630  -53.0949   20.1190 C   0  0  0  0  0  0  0  0  0  0  0  0
    1.2105  -51.8279   19.3297 C   0  0  0  0  0  0  0  0  0  0  0  0
    0.6780  -50.5369   19.8772 C   0  0  0  0  0  0  0  0  0  0  0  0
   -0.0020  -50.5129   21.2141 C   0  0  0  0  0  0  0  0  0  0  0  0
   -0.5344  -49.2219   21.7616 Cl  0  0  0  0  0  0  0  0  0  0  0  0
    1.8904  -51.8518   17.9929 N   0  0  0  0  0  0  0  0  0  0  0  0
    1.1473  -51.4141   16.7655 C   0  0  0  0  0  0  0  0  0  0  0  0
   -0.2757  -50.9524   16.8751 O   0  0  0  0  0  0  0  0  0  0  0  0
    1.8272  -51.4381   15.4287 N   0  0  0  0  0  0  0  0  0  0  0  0
    1.0841  -51.0004   14.2015 C   0  0  0  0  0  0  0  0  0  0  0  0
    1.7640  -51.0243   12.8645 C   0  0  0  0  0  0  0  0  0  0  0  0
    3.1870  -51.4860   12.7550 N   0  3  1  0  0  0  0  0  0  0  0  0
    3.8669  -51.5100   11.4182 C   0  0  0  0  0  0  0  0  0  0  0  0
    3.9301  -51.9237   13.9824 C   0  0  0  0  0  0  0  0  0  0  0  0
    3.2502  -51.8998   15.3192 C   0  0  1  0  0  0  0  0  0  0  0  0
    3.9932  -52.3375   16.5464 C   0  0  0  0  0  0  0  0  0  0  0  0
   -0.8293  -51.7559   23.3402 O   0  0  0  0  0  0  0  0  0  0  0  0
   -0.6054  -52.1932   25.8914 C   0  0  0  0  0  0  0  0  0  0  0  0
    0.2125  -52.1593   27.1483 C   0  0  0  0  0  0  0  0  0  0  0  0
    1.6245  -51.6544   27.1109 C   0  0  0  0  0  0  0  0  0  0  0  0
    2.4424  -51.6205   28.3679 F   0  0  0  0  0  0  0  0  0  0  0  0
    2.2185  -51.1833   25.8167 C   0  0  0  0  0  0  0  0  0  0  0  0
    1.4006  -51.2171   24.5598 C   0  0  0  0  0  0  0  0  0  0  0  0
   -0.0114  -51.7221   24.5972 C   0  0  0  0  0  0  0  0  0  0  0  0
   -3.1236  -51.7982   26.3937 C   0  0  0  0  0  0  0  0  0  0  0  0
   -2.0174  -52.6981   25.9288 O   0  0  0  0  0  0  0  0  0  0  0  0
    0.2817  -53.9426   21.9988 H   0  0  0  0  0  0  0  0  0  0  0  0
    1.4293  -53.9831   19.7423 H   0  0  0  0  0  0  0  0  0  0  0  0
    0.7794  -49.6652   19.3342 H   0  0  0  0  0  0  0  0  0  0  0  0
    2.8244  -52.1548   17.9210 H   0  0  0  0  0  0  0  0  0  0  0  0
    0.7736  -49.9908   14.3721 H   0  0  0  0  0  0  0  0  0  0  0  0
    0.3178  -51.7404   14.1010 H   0  0  0  0  0  0  0  0  0  0  0  0
    1.7335  -50.0245   12.4845 H   0  0  0  0  0  0  0  0  0  0  0  0
    1.2206  -51.7720   12.3255 H   0  0  0  0  0  0  0  0  0  0  0  0
    3.2486  -52.2100   13.4708 H   0  0  0  0  0  0  0  0  0  0  0  0
    3.6220  -50.6198   10.8775 H   0  0  0  0  0  0  0  0  0  0  0  0
    3.5373  -52.3650   10.8657 H   0  0  0  0  0  0  0  0  0  0  0  0
    4.9265  -51.5624   11.5578 H   0  0  0  0  0  0  0  0  0  0  0  0
    4.7916  -51.2943   14.0628 H   0  0  0  0  0  0  0  0  0  0  0  0
    4.0971  -52.9664   13.8100 H   0  0  0  0  0  0  0  0  0  0  0  0
    3.1804  -52.7314   15.9889 H   0  0  0  0  0  0  0  0  0  0  0  0
    4.7619  -51.6276   16.7701 H   0  0  0  0  0  0  0  0  0  0  0  0
    4.4334  -53.2973   16.3735 H   0  0  0  0  0  0  0  0  0  0  0  0
    3.3143  -52.3999   17.3711 H   0  0  0  0  0  0  0  0  0  0  0  0
   -0.1962  -52.4833   28.0388 H   0  0  0  0  0  0  0  0  0  0  0  0
    3.1899  -50.8359   25.7910 H   0  0  0  0  0  0  0  0  0  0  0  0
    1.8093  -50.8929   23.6693 H   0  0  0  0  0  0  0  0  0  0  0  0
   -4.0536  -52.3258   26.3528 H   0  0  0  0  0  0  0  0  0  0  0  0
   -3.1735  -50.9376   25.7598 H   0  0  0  0  0  0  0  0  0  0  0  0
   -2.9328  -51.4892   27.4002 H   0  0  0  0  0  0  0  0  0  0  0  0
  1  2  2  0  0  0  0
  2  3  1  0  0  0  0
  2 29  1  0  0  0  0
  3  4  2  0  0  0  0
  3 30  1  0  0  0  0
  4  8  1  0  0  0  0
  4  5  1  0  0  0  0
  5  6  2  0  0  0  0
  5 31  1  0  0  0  0
  6  7  1  0  0  0  0
  6  1  1  0  0  0  0
  8  9  1  0  0  0  0
  8 32  1  0  0  0  0
  9 10  2  0  0  0  0
  9 11  1  0  0  0  0
 11 12  1  0  0  0  0
 12 13  1  0  0  0  0
 12 33  1  0  0  0  0
 12 34  1  0  0  0  0
 13 14  1  0  0  0  0
 13 35  1  0  0  0  0
 13 36  1  0  0  0  0
 14 15  1  0  0  0  0
 14 16  1  0  0  0  0
 14 37  1  6  0  0  0
 15 38  1  0  0  0  0
 15 39  1  0  0  0  0
 15 40  1  0  0  0  0
 16 17  1  0  0  0  0
 16 41  1  0  0  0  0
 16 42  1  0  0  0  0
 17 18  1  0  0  0  0
 17 11  1  0  0  0  0
 17 43  1  6  0  0  0
 18 44  1  0  0  0  0
 18 45  1  0  0  0  0
 18 46  1  0  0  0  0
 19  1  1  0  0  0  0
 20 21  2  0  0  0  0
 21 22  1  0  0  0  0
 21 47  1  0  0  0  0
 22 23  1  0  0  0  0
 22 24  2  0  0  0  0
 24 25  1  0  0  0  0
 24 48  1  0  0  0  0
 25 26  2  0  0  0  0
 25 49  1  0  0  0  0
 26 19  1  0  0  0  0
 26 20  1  0  0  0  0
 27 28  1  0  0  0  0
 27 50  1  0  0  0  0
 27 51  1  0  0  0  0
 27 52  1  0  0  0  0
 28 20  1  0  0  0  0
M  CHG  1  14   1
M  END
$$$$

 OpenBabel09092411563D

 47 49  0  0  0  0  0  0  0  0999 V2000
    0.5717  -51.6071   21.7748 C   0  0  0  0  0  0  0  0  0  0  0  0
    0.8943  -52.9661   22.3215 N   0  0  0  0  0  0  0  0  0  0  0  0
    1.4902  -54.0124   21.4268 C   0  0  0  0  0  0  0  0  0  0  0  0
    1.7635  -53.6995   19.9856 N   0  0  0  0  0  0  0  0  0  0  0  0
    1.4409  -52.3404   19.4389 C   0  0  0  0  0  0  0  0  0  0  0  0
    0.8450  -51.2942   20.3334 C   0  0  0  0  0  0  0  0  0  0  0  0
    0.5224  -49.9352   19.7867 C   0  0  0  0  0  0  0  0  0  0  0  0
    1.7143  -52.0275   17.9976 N   0  0  0  0  0  0  0  0  0  0  0  0
    0.6754  -51.3282   17.1718 C   0  0  0  0  0  0  0  0  0  0  0  0
    0.9487  -51.0154   15.7305 C   0  0  0  0  0  0  0  0  0  0  0  0
    2.2609  -51.4018   15.1149 C   0  0  0  0  0  0  0  0  0  0  0  0
    3.2997  -52.1010   15.9406 C   0  0  2  0  0  0  0  0  0  0  0  0
    4.6118  -52.4874   15.3250 C   0  0  0  0  0  0  0  0  0  0  0  0
    3.0264  -52.4139   17.3820 C   0  0  0  0  0  0  0  0  0  0  0  0
   -0.0243  -50.5609   22.6694 N   0  0  0  0  0  0  0  0  0  0  0  0
   -0.7780  -51.4070   26.4728 C   0  0  0  0  0  0  0  0  0  0  0  0
   -2.2291  -51.7793   26.3982 C   0  0  0  0  0  0  0  0  0  0  0  0
   -2.9642  -52.1855   27.6411 F   0  0  0  0  0  0  0  0  0  0  0  0
   -2.9453  -51.7455   25.0806 C   0  0  0  0  0  0  0  0  0  0  0  0
   -2.2104  -51.3393   23.8377 C   0  0  0  0  0  0  0  0  0  0  0  0
   -0.7593  -50.9671   23.9124 C   0  0  0  0  0  0  0  0  0  0  0  0
   -0.0431  -51.0009   25.2299 C   0  0  0  0  0  0  0  0  0  0  0  0
    1.4081  -50.6286   25.3045 F   0  0  0  0  0  0  0  0  0  0  0  0
    1.0013  -52.4692   28.0399 C   0  0  0  0  0  0  0  0  0  0  0  0
   -0.0618  -51.4409   27.7904 O   0  0  0  0  0  0  0  0  0  0  0  0
    1.7121  -54.9475   21.8029 H   0  0  0  0  0  0  0  0  0  0  0  0
    0.7832  -49.8968   18.7497 H   0  0  0  0  0  0  0  0  0  0  0  0
    1.0785  -49.1942   20.3220 H   0  0  0  0  0  0  0  0  0  0  0  0
   -0.5246  -49.7451   19.8984 H   0  0  0  0  0  0  0  0  0  0  0  0
    0.4711  -50.3965   17.6567 H   0  0  0  0  0  0  0  0  0  0  0  0
   -0.1204  -52.0417   17.1220 H   0  0  0  0  0  0  0  0  0  0  0  0
    0.8569  -49.9549   15.6218 H   0  0  0  0  0  0  0  0  0  0  0  0
    0.2425  -51.6264   15.2081 H   0  0  0  0  0  0  0  0  0  0  0  0
    2.7095  -50.5004   14.7527 H   0  0  0  0  0  0  0  0  0  0  0  0
    1.9850  -52.1395   14.3906 H   0  0  0  0  0  0  0  0  0  0  0  0
    3.3501  -51.1826   16.4873 H   0  0  0  0  0  0  0  0  0  0  0  0
    4.4989  -53.4095   14.7941 H   0  0  0  0  0  0  0  0  0  0  0  0
    5.3456  -52.6065   16.0946 H   0  0  0  0  0  0  0  0  0  0  0  0
    4.9269  -51.7219   14.6471 H   0  0  0  0  0  0  0  0  0  0  0  0
    3.7903  -51.9294   17.9535 H   0  0  0  0  0  0  0  0  0  0  0  0
    3.0015  -53.4834   17.4011 H   0  0  0  0  0  0  0  0  0  0  0  0
    0.0669  -49.6077   22.4408 H   0  0  0  0  0  0  0  0  0  0  0  0
   -3.9437  -52.0017   25.0293 H   0  0  0  0  0  0  0  0  0  0  0  0
   -2.7031  -51.3159   22.9312 H   0  0  0  0  0  0  0  0  0  0  0  0
    1.3975  -52.3407   29.0255 H   0  0  0  0  0  0  0  0  0  0  0  0
    1.7861  -52.3523   27.3220 H   0  0  0  0  0  0  0  0  0  0  0  0
    0.5787  -53.4481   27.9501 H   0  0  0  0  0  0  0  0  0  0  0  0
  1  2  2  0  0  0  0
  2  3  1  0  0  0  0
  3  4  2  0  0  0  0
  3 26  1  0  0  0  0
  4  5  1  0  0  0  0
  5  8  1  0  0  0  0
  5  6  2  0  0  0  0
  6  7  1  0  0  0  0
  6  1  1  0  0  0  0
  7 27  1  0  0  0  0
  7 28  1  0  0  0  0
  7 29  1  0  0  0  0
  8  9  1  0  0  0  0
  9 10  1  0  0  0  0
  9 30  1  0  0  0  0
  9 31  1  0  0  0  0
 10 11  1  0  0  0  0
 10 32  1  0  0  0  0
 10 33  1  0  0  0  0
 11 12  1  0  0  0  0
 11 34  1  0  0  0  0
 11 35  1  0  0  0  0
 12 13  1  0  0  0  0
 12 14  1  0  0  0  0
 12 36  1  1  0  0  0
 13 37  1  0  0  0  0
 13 38  1  0  0  0  0
 13 39  1  0  0  0  0
 14  8  1  0  0  0  0
 14 40  1  0  0  0  0
 14 41  1  0  0  0  0
 15  1  1  0  0  0  0
 15 42  1  0  0  0  0
 16 17  2  0  0  0  0
 17 18  1  0  0  0  0
 17 19  1  0  0  0  0
 19 20  2  0  0  0  0
 19 43  1  0  0  0  0
 20 21  1  0  0  0  0
 20 44  1  0  0  0  0
 21 15  1  0  0  0  0
 21 22  2  0  0  0  0
 22 23  1  0  0  0  0
 22 16  1  0  0  0  0
 24 25  1  0  0  0  0
 24 45  1  0  0  0  0
 24 46  1  0  0  0  0
 24 47  1  0  0  0  0
 25 16  1  0  0  0  0
M  END
$$$$

 OpenBabel09092411563D

 44 46  0  0  0  0  0  0  0  0999 V2000
    1.2150  -51.5115   18.0325 N   0  0  0  0  0  0  0  0  0  0  0  0
    0.5955  -50.1696   17.7766 C   0  0  0  0  0  0  0  0  0  0  0  0
   -0.0466  -49.4131   18.9016 C   0  0  2  0  0  0  0  0  0  0  0  0
   -0.6661  -48.0713   18.6458 C   0  0  0  0  0  0  0  0  0  0  0  0
   -0.0691  -49.9986   20.2825 C   0  0  0  0  0  0  0  0  0  0  0  0
    0.5504  -51.3406   20.5383 C   0  0  0  0  0  0  0  0  0  0  0  0
    0.5279  -51.9261   21.9191 C   0  0  0  0  0  0  0  0  0  0  0  0
    1.1474  -53.2679   22.1750 N   0  0  0  0  0  0  0  0  0  0  0  0
    1.7895  -54.0243   21.0500 C   0  0  0  0  0  0  0  0  0  0  0  0
    1.8120  -53.4389   19.6692 N   0  0  0  0  0  0  0  0  0  0  0  0
    1.1925  -52.0970   19.4133 C   0  0  0  0  0  0  0  0  0  0  0  0
    3.3513  -52.2957   16.7790 C   0  0  0  0  0  0  0  0  0  0  0  0
    1.8570  -52.2679   16.9075 C   0  0  0  0  0  0  0  0  0  0  0  0
   -0.1142  -51.1696   23.0441 N   0  0  0  0  0  0  0  0  0  0  0  0
    0.2935  -51.4440   24.4613 C   0  0  0  0  0  0  0  0  0  0  0  0
    1.6520  -51.0304   24.9444 C   0  0  0  0  0  0  0  0  0  0  0  0
    2.0597  -51.3048   26.3616 C   0  0  0  0  0  0  0  0  0  0  0  0
    1.1090  -51.9928   27.2957 C   0  0  0  0  0  0  0  0  0  0  0  0
    1.5167  -52.2672   28.7130 Cl  0  0  0  0  0  0  0  0  0  0  0  0
   -0.2496  -52.4064   26.8127 C   0  0  0  0  0  0  0  0  0  0  0  0
   -1.2004  -53.0944   27.7468 F   0  0  0  0  0  0  0  0  0  0  0  0
   -0.6573  -52.1320   25.3955 C   0  0  0  0  0  0  0  0  0  0  0  0
   -2.0158  -52.5456   24.9124 O   0  0  0  0  0  0  0  0  0  0  0  0
   -3.2301  -51.7751   25.3388 C   0  0  0  0  0  0  0  0  0  0  0  0
   -0.1588  -50.3146   17.0317 H   0  0  0  0  0  0  0  0  0  0  0  0
    1.4335  -49.5576   17.5154 H   0  0  0  0  0  0  0  0  0  0  0  0
   -0.3366  -48.9911   17.9621 H   0  0  0  0  0  0  0  0  0  0  0  0
   -0.7914  -47.5535   19.5738 H   0  0  0  0  0  0  0  0  0  0  0  0
   -1.6199  -48.2020   18.1787 H   0  0  0  0  0  0  0  0  0  0  0  0
   -0.0290  -47.5011   18.0024 H   0  0  0  0  0  0  0  0  0  0  0  0
   -1.0971  -50.0732   20.5697 H   0  0  0  0  0  0  0  0  0  0  0  0
    0.5510  -49.3306   20.8430 H   0  0  0  0  0  0  0  0  0  0  0  0
    2.2158  -54.9475   21.2260 H   0  0  0  0  0  0  0  0  0  0  0  0
    3.6250  -52.8789   15.9247 H   0  0  0  0  0  0  0  0  0  0  0  0
    3.7769  -52.7307   17.6591 H   0  0  0  0  0  0  0  0  0  0  0  0
    3.7178  -51.2973   16.6616 H   0  0  0  0  0  0  0  0  0  0  0  0
    1.5356  -53.2847   16.9958 H   0  0  0  0  0  0  0  0  0  0  0  0
    1.5454  -51.7273   16.0383 H   0  0  0  0  0  0  0  0  0  0  0  0
   -0.8032  -50.4930   22.8523 H   0  0  0  0  0  0  0  0  0  0  0  0
    2.3062  -50.5570   24.3017 H   0  0  0  0  0  0  0  0  0  0  0  0
    2.9944  -51.0202   26.6939 H   0  0  0  0  0  0  0  0  0  0  0  0
   -4.1023  -52.2122   24.8995 H   0  0  0  0  0  0  0  0  0  0  0  0
   -3.1393  -50.7590   25.0161 H   0  0  0  0  0  0  0  0  0  0  0  0
   -3.3149  -51.8044   26.4050 H   0  0  0  0  0  0  0  0  0  0  0  0
  1  2  1  0  0  0  0
  2  3  1  0  0  0  0
  2 25  1  0  0  0  0
  2 26  1  0  0  0  0
  3  4  1  0  0  0  0
  3  5  1  0  0  0  0
  3 27  1  6  0  0  0
  4 28  1  0  0  0  0
  4 29  1  0  0  0  0
  4 30  1  0  0  0  0
  5  6  1  0  0  0  0
  5 31  1  0  0  0  0
  5 32  1  0  0  0  0
  6  7  2  0  0  0  0
  7 14  1  0  0  0  0
  7  8  1  0  0  0  0
  8  9  2  0  0  0  0
  9 10  1  0  0  0  0
  9 33  1  0  0  0  0
 10 11  2  0  0  0  0
 11  1  1  0  0  0  0
 11  6  1  0  0  0  0
 12 13  1  0  0  0  0
 12 34  1  0  0  0  0
 12 35  1  0  0  0  0
 12 36  1  0  0  0  0
 13  1  1  0  0  0  0
 13 37  1  0  0  0  0
 13 38  1  0  0  0  0
 14 15  1  0  0  0  0
 14 39  1  0  0  0  0
 15 16  2  0  0  0  0
 16 17  1  0  0  0  0
 16 40  1  0  0  0  0
 17 18  2  0  0  0  0
 17 41  1  0  0  0  0
 18 19  1  0  0  0  0
 18 20  1  0  0  0  0
 20 21  1  0  0  0  0
 20 22  2  0  0  0  0
 22 23  1  0  0  0  0
 22 15  1  0  0  0  0
 23 24  1  0  0  0  0
 24 42  1  0  0  0  0
 24 43  1  0  0  0  0
 24 44  1  0  0  0  0
M  END
$$$$

 OpenBabel09092411563D

 47 50  0  0  0  0  0  0  0  0999 V2000
    0.3591  -52.1444   21.9284 C   0  0  0  0  0  0  0  0  0  0  0  0
    1.1493  -53.4010   22.1441 N   0  0  0  0  0  0  0  0  0  0  0  0
    1.9673  -53.9739   21.0249 C   0  0  0  0  0  0  0  0  0  0  0  0
    1.9951  -53.2903   19.6901 N   0  0  0  0  0  0  0  0  0  0  0  0
    1.2049  -52.0337   19.4744 C   0  0  0  0  0  0  0  0  0  0  0  0
    0.3869  -51.4608   20.5936 C   0  0  0  0  0  0  0  0  0  0  0  0
   -0.4033  -50.2041   20.3779 C   0  0  0  0  0  0  0  0  0  0  0  0
   -0.3755  -49.5205   19.0430 C   0  0  1  0  0  0  0  0  0  0  0  0
   -1.1657  -48.2639   18.8273 C   0  0  0  0  0  0  0  0  0  0  0  0
   -1.1379  -47.5803   17.4925 C   0  0  0  0  0  0  0  0  0  0  0  0
   -0.3200  -48.1532   16.3733 N   0  3  1  0  0  0  0  0  0  0  0  0
   -0.2922  -47.4696   15.0384 C   0  0  0  0  0  0  0  0  0  0  0  0
    0.4703  -49.4099   16.5890 C   0  0  0  0  0  0  0  0  0  0  0  0
    0.4425  -50.0935   17.9238 C   0  0  1  0  0  0  0  0  0  0  0  0
    1.2327  -51.3501   18.1395 O   0  0  0  0  0  0  0  0  0  0  0  0
   -0.4589  -51.5714   23.0476 N   0  0  0  0  0  0  0  0  0  0  0  0
   -0.8735  -52.2828   25.5118 C   0  0  0  0  0  0  0  0  0  0  0  0
    0.0209  -51.6895   24.4639 C   0  0  0  0  0  0  0  0  0  0  0  0
    1.3951  -51.2142   24.8323 C   0  0  0  0  0  0  0  0  0  0  0  0
    1.8749  -51.3322   26.2486 C   0  0  0  0  0  0  0  0  0  0  0  0
    0.9804  -51.9256   27.2965 C   0  0  0  0  0  0  0  0  0  0  0  0
    1.4602  -52.0437   28.7128 Cl  0  0  0  0  0  0  0  0  0  0  0  0
   -0.3937  -52.4009   26.9281 C   0  0  0  0  0  0  0  0  0  0  0  0
   -1.2882  -52.9942   27.9759 F   0  0  0  0  0  0  0  0  0  0  0  0
   -3.4409  -51.8941   25.4256 C   0  0  0  0  0  0  0  0  0  0  0  0
   -2.2477  -52.7581   25.1433 O   0  0  0  0  0  0  0  0  0  0  0  0
    2.5110  -54.8384   21.1733 H   0  0  0  0  0  0  0  0  0  0  0  0
   -0.0542  -49.4925   21.0967 H   0  0  0  0  0  0  0  0  0  0  0  0
   -1.4177  -50.5335   20.4645 H   0  0  0  0  0  0  0  0  0  0  0  0
    0.2633  -50.3680   18.9069 H   0  0  0  0  0  0  0  0  0  0  0  0
   -0.8166  -47.5523   19.5461 H   0  0  0  0  0  0  0  0  0  0  0  0
   -2.1800  -48.5933   18.9138 H   0  0  0  0  0  0  0  0  0  0  0  0
   -0.7773  -46.5872   17.6616 H   0  0  0  0  0  0  0  0  0  0  0  0
   -2.1431  -47.6856   17.1413 H   0  0  0  0  0  0  0  0  0  0  0  0
   -1.0753  -47.5881   15.9853 H   0  0  0  0  0  0  0  0  0  0  0  0
    0.6425  -47.6666   14.5562 H   0  0  0  0  0  0  0  0  0  0  0  0
   -0.4075  -46.4147   15.1754 H   0  0  0  0  0  0  0  0  0  0  0  0
   -1.0917  -47.8399   14.4313 H   0  0  0  0  0  0  0  0  0  0  0  0
    1.4932  -49.1702   16.3860 H   0  0  0  0  0  0  0  0  0  0  0  0
   -0.0075  -50.1151   15.9415 H   0  0  0  0  0  0  0  0  0  0  0  0
   -0.0504  -50.8394   17.3360 H   0  0  0  0  0  0  0  0  0  0  0  0
   -1.3107  -51.1178   22.8526 H   0  0  0  0  0  0  0  0  0  0  0  0
    2.0104  -50.8060   24.1114 H   0  0  0  0  0  0  0  0  0  0  0  0
    2.8203  -51.0052   26.5021 H   0  0  0  0  0  0  0  0  0  0  0  0
   -4.3284  -52.3932   25.0969 H   0  0  0  0  0  0  0  0  0  0  0  0
   -3.3401  -50.9653   24.9040 H   0  0  0  0  0  0  0  0  0  0  0  0
   -3.5053  -51.7074   26.4772 H   0  0  0  0  0  0  0  0  0  0  0  0
  1  2  2  0  0  0  0
  2  3  1  0  0  0  0
  3  4  2  0  0  0  0
  3 27  1  0  0  0  0
  4  5  1  0  0  0  0
  5  6  2  0  0  0  0
  6  7  1  0  0  0  0
  6  1  1  0  0  0  0
  7 28  1  0  0  0  0
  7 29  1  0  0  0  0
  8  7  1  0  0  0  0
  8  9  1  0  0  0  0
  8 30  1  6  0  0  0
  9 10  1  0  0  0  0
  9 31  1  0  0  0  0
  9 32  1  0  0  0  0
 10 11  1  0  0  0  0
 10 33  1  0  0  0  0
 10 34  1  0  0  0  0
 11 12  1  0  0  0  0
 11 13  1  0  0  0  0
 11 35  1  6  0  0  0
 12 36  1  0  0  0  0
 12 37  1  0  0  0  0
 12 38  1  0  0  0  0
 13 39  1  0  0  0  0
 13 40  1  0  0  0  0
 14 13  1  0  0  0  0
 14 15  1  0  0  0  0
 14  8  1  0  0  0  0
 14 41  1  6  0  0  0
 15  5  1  0  0  0  0
 16  1  1  0  0  0  0
 16 42  1  0  0  0  0
 17 18  2  0  0  0  0
 18 16  1  0  0  0  0
 18 19  1  0  0  0  0
 19 20  2  0  0  0  0
 19 43  1  0  0  0  0
 20 21  1  0  0  0  0
 20 44  1  0  0  0  0
 21 22  1  0  0  0  0
 21 23  2  0  0  0  0
 23 24  1  0  0  0  0
 23 17  1  0  0  0  0
 25 26  1  0  0  0  0
 25 45  1  0  0  0  0
 25 46  1  0  0  0  0
 25 47  1  0  0  0  0
 26 17  1  0  0  0  0
M  CHG  1  11   1
M  END
$$$$

 OpenBabel09092411563D

 56 59  0  0  0  0  0  0  0  0999 V2000
    1.0217  -51.9077   22.5778 C   0  0  0  0  0  0  0  0  0  0  0  0
    1.1677  -53.3533   22.9503 N   0  0  0  0  0  0  0  0  0  0  0  0
    1.4120  -54.3812   21.8854 C   0  0  0  0  0  0  0  0  0  0  0  0
    1.5103  -53.9634   20.4481 N   0  0  0  0  0  0  0  0  0  0  0  0
    1.3643  -52.5177   20.0757 C   0  0  0  0  0  0  0  0  0  0  0  0
    1.1200  -51.4899   21.1404 C   0  0  0  0  0  0  0  0  0  0  0  0
    0.9739  -50.0442   20.7680 Cl  0  0  0  0  0  0  0  0  0  0  0  0
    1.4626  -52.0999   18.6383 C   0  0  2  0  0  0  0  0  0  0  0  0
    0.3426  -51.3309   18.0026 C   0  0  0  0  0  0  0  0  0  0  0  0
    0.4409  -50.9132   16.5653 C   0  0  0  0  0  0  0  0  0  0  0  0
    1.6592  -51.2645   15.7638 C   0  0  1  0  0  0  0  0  0  0  0  0
    2.0360  -50.9903   14.3380 C   0  0  0  0  0  0  0  0  0  0  0  0
    3.3889  -51.5899   14.0926 N   0  3  1  0  0  0  0  0  0  0  0  0
    4.1491  -51.5515   12.8000 C   0  0  0  0  0  0  0  0  0  0  0  0
    3.8482  -52.2346   15.3667 C   0  0  0  0  0  0  0  0  0  0  0  0
    2.7792  -52.0335   16.3996 C   0  0  2  0  0  0  0  0  0  0  0  0
    2.6808  -52.4512   17.8368 C   0  0  0  0  0  0  0  0  0  0  0  0
    0.7774  -50.8798   23.6425 N   0  0  0  0  0  0  0  0  0  0  0  0
    0.3590  -51.9128   27.4515 C   0  0  0  0  0  0  0  0  0  0  0  0
    1.7756  -51.8028   27.9323 C   0  0  0  0  0  0  0  0  0  0  0  0
    2.8594  -51.3852   26.9832 C   0  0  0  0  0  0  0  0  0  0  0  0
    2.5267  -51.0775   25.5533 C   0  0  0  0  0  0  0  0  0  0  0  0
    1.1101  -51.1875   25.0725 C   0  0  0  0  0  0  0  0  0  0  0  0
    0.0263  -51.6051   26.0216 C   0  0  0  0  0  0  0  0  0  0  0  0
   -1.4109  -53.6522   28.2208 C   0  0  0  0  0  0  0  0  0  0  0  0
   -0.7249  -52.3304   28.4006 O   0  0  0  0  0  0  0  0  0  0  0  0
   -1.3904  -51.7151   25.5408 O   0  0  0  0  0  0  0  0  0  0  0  0
   -2.3443  -50.5767   25.7511 C   0  0  0  0  0  0  0  0  0  0  0  0
    1.5124  -55.3758   22.1417 H   0  0  0  0  0  0  0  0  0  0  0  0
    2.2271  -51.4890   18.2056 H   0  0  0  0  0  0  0  0  0  0  0  0
    0.2174  -50.4365   18.5764 H   0  0  0  0  0  0  0  0  0  0  0  0
   -0.4664  -52.0312   18.0005 H   0  0  0  0  0  0  0  0  0  0  0  0
    0.3561  -49.8467   16.5471 H   0  0  0  0  0  0  0  0  0  0  0  0
   -0.3359  -51.4765   16.0918 H   0  0  0  0  0  0  0  0  0  0  0  0
    0.7087  -50.7747   15.7245 H   0  0  0  0  0  0  0  0  0  0  0  0
    2.0705  -49.9344   14.1682 H   0  0  0  0  0  0  0  0  0  0  0  0
    1.3140  -51.4177   13.6739 H   0  0  0  0  0  0  0  0  0  0  0  0
    3.9056  -51.5639   13.2135 H   0  0  0  0  0  0  0  0  0  0  0  0
    5.1692  -51.2933   12.9937 H   0  0  0  0  0  0  0  0  0  0  0  0
    3.7131  -50.8206   12.1514 H   0  0  0  0  0  0  0  0  0  0  0  0
    4.1072  -52.5132   12.3329 H   0  0  0  0  0  0  0  0  0  0  0  0
    4.7601  -51.7812   15.6949 H   0  0  0  0  0  0  0  0  0  0  0  0
    4.0243  -53.2787   15.2125 H   0  0  0  0  0  0  0  0  0  0  0  0
    3.2888  -52.5457   17.1888 H   0  0  0  0  0  0  0  0  0  0  0  0
    3.5186  -52.0182   18.3423 H   0  0  0  0  0  0  0  0  0  0  0  0
    2.6384  -53.5189   17.7802 H   0  0  0  0  0  0  0  0  0  0  0  0
    0.3987  -50.0032   23.4028 H   0  0  0  0  0  0  0  0  0  0  0  0
    2.0045  -52.0144   28.9161 H   0  0  0  0  0  0  0  0  0  0  0  0
    3.8340  -51.3096   27.3140 H   0  0  0  0  0  0  0  0  0  0  0  0
    3.2724  -50.7901   24.9003 H   0  0  0  0  0  0  0  0  0  0  0  0
   -2.1494  -53.7776   28.9849 H   0  0  0  0  0  0  0  0  0  0  0  0
   -0.6902  -54.4402   28.2885 H   0  0  0  0  0  0  0  0  0  0  0  0
   -1.8824  -53.6817   27.2607 H   0  0  0  0  0  0  0  0  0  0  0  0
   -3.3008  -50.8334   25.3461 H   0  0  0  0  0  0  0  0  0  0  0  0
   -1.9712  -49.7031   25.2585 H   0  0  0  0  0  0  0  0  0  0  0  0
   -2.4413  -50.3815   26.7987 H   0  0  0  0  0  0  0  0  0  0  0  0
  1  2  2  0  0  0  0
  2  3  1  0  0  0  0
  3  4  2  0  0  0  0
  3 29  1  0  0  0  0
  4  5  1  0  0  0  0
  5  6  2  0  0  0  0
  6  7  1  0  0  0  0
  6  1  1  0  0  0  0
  8  5  1  0  0  0  0
  8  9  1  0  0  0  0
  8 30  1  1  0  0  0
  9 10  1  0  0  0  0
  9 31  1  0  0  0  0
  9 32  1  0  0  0  0
 10 33  1  0  0  0  0
 10 34  1  0  0  0  0
 11 10  1  0  0  0  0
 11 12  1  0  0  0  0
 11 35  1  6  0  0  0
 12 13  1  0  0  0  0
 12 36  1  0  0  0  0
 12 37  1  0  0  0  0
 13 14  1  0  0  0  0
 13 15  1  0  0  0  0
 13 38  1  6  0  0  0
 14 39  1  0  0  0  0
 14 40  1  0  0  0  0
 14 41  1  0  0  0  0
 15 42  1  0  0  0  0
 15 43  1  0  0  0  0
 16 15  1  0  0  0  0
 16 17  1  0  0  0  0
 16 11  1  0  0  0  0
 16 44  1  1  0  0  0
 17  8  1  0  0  0  0
 17 45  1  0  0  0  0
 17 46  1  0  0  0  0
 18  1  1  0  0  0  0
 18 47  1  0  0  0  0
 19 20  2  0  0  0  0
 20 21  1  0  0  0  0
 20 48  1  0  0  0  0
 21 22  2  0  0  0  0
 21 49  1  0  0  0  0
 22 23  1  0  0  0  0
 22 50  1  0  0  0  0
 23 18  1  0  0  0  0
 23 24  2  0  0  0  0
 24 27  1  0  0  0  0
 24 19  1  0  0  0  0
 25 26  1  0  0  0  0
 25 51  1  0  0  0  0
 25 52  1  0  0  0  0
 25 53  1  0  0  0  0
 26 19  1  0  0  0  0
 27 28  1  0  0  0  0
 28 54  1  0  0  0  0
 28 55  1  0  0  0  0
 28 56  1  0  0  0  0
M  CHG  1  13   1
M  END
$$$$

 OpenBabel09092411563D

 42 43  0  0  0  0  0  0  0  0999 V2000
   -3.0438  -49.4955   21.4751 C   0  0  0  0  0  0  0  0  0  0  0  0
   -0.4514  -49.5667   21.6314 C   0  0  0  0  0  0  0  0  0  0  0  0
   -1.7235  -49.9752   20.9494 N   0  0  0  0  0  0  0  0  0  0  0  0
   -1.6750  -50.8636   19.7418 C   0  0  0  0  0  0  0  0  0  0  0  0
   -2.9470  -51.2722   19.0598 O   0  0  0  0  0  0  0  0  0  0  0  0
   -0.3546  -51.3434   19.2161 C   0  0  0  0  0  0  0  0  0  0  0  0
    0.1191  -50.9020   17.8630 C   0  0  0  0  0  0  0  0  0  0  0  0
    1.4395  -51.3818   17.3374 C   0  0  0  0  0  0  0  0  0  0  0  0
    1.9133  -50.9405   15.9843 F   0  0  0  0  0  0  0  0  0  0  0  0
    2.2862  -52.3029   18.1649 C   0  0  0  0  0  0  0  0  0  0  0  0
    1.8125  -52.7443   19.5179 C   0  0  0  0  0  0  0  0  0  0  0  0
    2.6592  -53.6654   20.3453 F   0  0  0  0  0  0  0  0  0  0  0  0
    0.4921  -52.2645   20.0435 C   0  0  0  0  0  0  0  0  0  0  0  0
   -3.8115  -50.3348   22.4529 C   0  0  0  0  0  0  0  0  0  0  0  0
   -3.1956  -51.5806   23.0176 C   0  0  0  0  0  0  0  0  0  0  0  0
   -3.0507  -51.7392   24.5021 N   0  0  0  0  0  0  0  0  0  0  0  0
   -4.2693  -51.7616   25.3765 C   0  0  0  0  0  0  0  0  0  0  0  0
   -1.6872  -51.8754   25.1123 C   0  0  0  0  0  0  0  0  0  0  0  0
   -1.1036  -53.2369   25.3481 N   0  0  0  0  0  0  0  0  0  0  0  0
    0.2599  -53.3730   25.9583 C   0  0  0  0  0  0  0  0  0  0  0  0
    1.0398  -52.1476   26.3326 C   0  0  0  0  0  0  0  0  0  0  0  0
    0.4562  -50.7861   26.0968 N   0  0  0  0  0  0  0  0  0  0  0  0
   -0.9072  -50.6500   25.4866 C   0  0  0  0  0  0  0  0  0  0  0  0
   -1.4909  -49.2884   25.2507 C   0  0  0  0  0  0  0  0  0  0  0  0
   -2.0744  -47.9269   25.0148 N   0  0  0  0  0  0  0  0  0  0  0  0
   -2.8632  -48.5543   21.9509 H   0  0  0  0  0  0  0  0  0  0  0  0
   -3.6690  -49.4958   20.6068 H   0  0  0  0  0  0  0  0  0  0  0  0
   -0.6804  -48.9383   22.4666 H   0  0  0  0  0  0  0  0  0  0  0  0
    0.1673  -49.0317   20.9415 H   0  0  0  0  0  0  0  0  0  0  0  0
    0.0663  -50.4388   21.9726 H   0  0  0  0  0  0  0  0  0  0  0  0
   -0.4634  -50.2683   17.2937 H   0  0  0  0  0  0  0  0  0  0  0  0
    3.1947  -52.6329   17.8033 H   0  0  0  0  0  0  0  0  0  0  0  0
    0.1662  -52.5681   20.9744 H   0  0  0  0  0  0  0  0  0  0  0  0
   -4.7149  -50.6318   21.9625 H   0  0  0  0  0  0  0  0  0  0  0  0
   -3.9023  -49.6965   23.3068 H   0  0  0  0  0  0  0  0  0  0  0  0
   -2.2126  -51.6551   22.6016 H   0  0  0  0  0  0  0  0  0  0  0  0
   -3.8994  -52.3431   22.7564 H   0  0  0  0  0  0  0  0  0  0  0  0
   -5.1448  -51.6525   24.7711 H   0  0  0  0  0  0  0  0  0  0  0  0
   -4.2189  -50.9562   26.0792 H   0  0  0  0  0  0  0  0  0  0  0  0
   -4.3135  -52.6921   25.9030 H   0  0  0  0  0  0  0  0  0  0  0  0
    0.6614  -54.3097   26.1206 H   0  0  0  0  0  0  0  0  0  0  0  0
    1.9779  -52.2413   26.7524 H   0  0  0  0  0  0  0  0  0  0  0  0
  1 14  1  0  0  0  0
  1 26  1  0  0  0  0
  1 27  1  0  0  0  0
  2  3  1  0  0  0  0
  2 28  1  0  0  0  0
  2 29  1  0  0  0  0
  2 30  1  0  0  0  0
  3  1  1  0  0  0  0
  3  4  1  0  0  0  0
  4  5  2  0  0  0  0
  4  6  1  0  0  0  0
  6  7  2  0  0  0  0
  7  8  1  0  0  0  0
  7 31  1  0  0  0  0
  8  9  1  0  0  0  0
  8 10  2  0  0  0  0
 10 11  1  0  0  0  0
 10 32  1  0  0  0  0
 11 12  1  0  0  0  0
 11 13  2  0  0  0  0
 13  6  1  0  0  0  0
 13 33  1  0  0  0  0
 14 15  1  0  0  0  0
 14 34  1  0  0  0  0
 14 35  1  0  0  0  0
 15 16  1  0  0  0  0
 15 36  1  0  0  0  0
 15 37  1  0  0  0  0
 16 17  1  0  0  0  0
 16 18  1  0  0  0  0
 17 38  1  0  0  0  0
 17 39  1  0  0  0  0
 17 40  1  0  0  0  0
 18 19  2  0  0  0  0
 19 20  1  0  0  0  0
 20 21  2  0  0  0  0
 20 41  1  0  0  0  0
 21 22  1  0  0  0  0
 21 42  1  0  0  0  0
 22 23  2  0  0  0  0
 23 24  1  0  0  0  0
 23 18  1  0  0  0  0
 24 25  3  0  0  0  0
M  END
$$$$

 OpenBabel09092411563D

 47 49  0  0  0  0  0  0  0  0999 V2000
    1.2923  -53.8285   23.4095 C   0  0  0  0  0  0  0  0  0  0  0  0
    0.6741  -54.8447   24.3235 C   0  0  0  0  0  0  0  0  0  0  0  0
    0.2275  -54.4436   25.6982 C   0  0  0  0  0  0  0  0  0  0  0  0
    0.3992  -53.0264   26.1589 C   0  0  0  0  0  0  0  0  0  0  0  0
    1.0173  -52.0103   25.2449 C   0  0  0  0  0  0  0  0  0  0  0  0
    1.1890  -50.5931   25.7056 F   0  0  0  0  0  0  0  0  0  0  0  0
    1.4639  -52.4114   23.8702 C   0  0  0  0  0  0  0  0  0  0  0  0
    1.7389  -54.2296   22.0349 N   0  0  0  0  0  0  0  0  0  0  0  0
    2.8763  -52.4791   17.2765 C   0  0  0  0  0  0  0  0  0  0  0  0
    1.9770  -52.4875   18.4770 C   0  0  0  0  0  0  0  0  0  0  0  0
    2.3076  -53.3543   19.6556 N   0  0  0  0  0  0  0  0  0  0  0  0
    1.4083  -53.3627   20.8562 C   0  0  0  0  0  0  0  0  0  0  0  0
    0.1785  -52.5042   20.8781 C   0  0  0  0  0  0  0  0  0  0  0  0
   -0.1521  -51.6373   19.6994 C   0  0  0  0  0  0  0  0  0  0  0  0
    0.7472  -51.6290   18.4989 C   0  0  0  0  0  0  0  0  0  0  0  0
    0.4166  -50.7621   17.3202 Cl  0  0  0  0  0  0  0  0  0  0  0  0
   -0.0474  -52.6253   27.5336 O   0  0  0  0  0  0  0  0  0  0  0  0
   -1.4657  -52.8628   27.9605 C   0  0  0  0  0  0  0  0  0  0  0  0
   -2.5665  -51.9998   27.4188 C   0  0  0  0  0  0  0  0  0  0  0  0
   -2.4175  -51.3494   26.0754 N   0  3  0  0  0  0  0  0  0  0  0  0
   -2.7142  -52.1281   24.8282 C   0  0  0  0  0  0  0  0  0  0  0  0
   -2.5653  -51.4777   23.4847 C   0  0  0  0  0  0  0  0  0  0  0  0
   -2.1196  -50.0487   23.3885 O   0  0  0  0  0  0  0  0  0  0  0  0
   -1.8229  -49.2700   24.6358 C   0  0  0  0  0  0  0  0  0  0  0  0
   -1.9719  -49.9204   25.9792 C   0  0  0  0  0  0  0  0  0  0  0  0
    0.5561  -55.8197   24.0066 H   0  0  0  0  0  0  0  0  0  0  0  0
   -0.1979  -55.1426   26.3270 H   0  0  0  0  0  0  0  0  0  0  0  0
    1.8892  -51.7123   23.2414 H   0  0  0  0  0  0  0  0  0  0  0  0
    2.2490  -55.0618   21.9063 H   0  0  0  0  0  0  0  0  0  0  0  0
    3.6960  -53.1471   17.4402 H   0  0  0  0  0  0  0  0  0  0  0  0
    3.2494  -51.4890   17.1173 H   0  0  0  0  0  0  0  0  0  0  0  0
    2.3250  -52.7952   16.4157 H   0  0  0  0  0  0  0  0  0  0  0  0
   -0.4402  -52.5099   21.7041 H   0  0  0  0  0  0  0  0  0  0  0  0
   -0.9982  -51.0466   19.7144 H   0  0  0  0  0  0  0  0  0  0  0  0
   -1.4889  -52.7609   29.0254 H   0  0  0  0  0  0  0  0  0  0  0  0
   -1.6867  -53.8275   27.5538 H   0  0  0  0  0  0  0  0  0  0  0  0
   -2.7194  -51.2130   28.1277 H   0  0  0  0  0  0  0  0  0  0  0  0
   -3.3699  -52.6906   27.2698 H   0  0  0  0  0  0  0  0  0  0  0  0
   -1.6344  -50.7023   26.1668 H   0  0  0  0  0  0  0  0  0  0  0  0
   -3.7304  -52.4547   24.9024 H   0  0  0  0  0  0  0  0  0  0  0  0
   -1.9546  -52.8817   24.8222 H   0  0  0  0  0  0  0  0  0  0  0  0
   -3.5202  -51.5363   23.0056 H   0  0  0  0  0  0  0  0  0  0  0  0
   -1.7569  -52.0181   23.0381 H   0  0  0  0  0  0  0  0  0  0  0  0
   -2.4721  -48.4194   24.6307 H   0  0  0  0  0  0  0  0  0  0  0  0
   -0.7710  -49.0864   24.5667 H   0  0  0  0  0  0  0  0  0  0  0  0
   -2.6825  -49.3377   26.5274 H   0  0  0  0  0  0  0  0  0  0  0  0
   -0.9689  -49.9500   26.3507 H   0  0  0  0  0  0  0  0  0  0  0  0
  1  2  2  0  0  0  0
  2  3  1  0  0  0  0
  2 26  1  0  0  0  0
  3  4  2  0  0  0  0
  3 27  1  0  0  0  0
  4 17  1  0  0  0  0
  4  5  1  0  0  0  0
  5  6  1  0  0  0  0
  5  7  2  0  0  0  0
  7  1  1  0  0  0  0
  7 28  1  0  0  0  0
  8  1  1  0  0  0  0
  8 29  1  0  0  0  0
  9 10  1  0  0  0  0
  9 30  1  0  0  0  0
  9 31  1  0  0  0  0
  9 32  1  0  0  0  0
 10 11  2  0  0  0  0
 11 12  1  0  0  0  0
 12  8  1  0  0  0  0
 12 13  2  0  0  0  0
 13 14  1  0  0  0  0
 13 33  1  0  0  0  0
 14 15  2  0  0  0  0
 14 34  1  0  0  0  0
 15 16  1  0  0  0  0
 15 10  1  0  0  0  0
 17 18  1  0  0  0  0
 18 19  1  0  0  0  0
 18 35  1  0  0  0  0
 18 36  1  0  0  0  0
 19 20  1  0  0  0  0
 19 37  1  0  0  0  0
 19 38  1  0  0  0  0
 20 21  1  0  0  0  0
 20 39  1  0  0  0  0
 21 22  1  0  0  0  0
 21 40  1  0  0  0  0
 21 41  1  0  0  0  0
 22 23  1  0  0  0  0
 22 42  1  0  0  0  0
 22 43  1  0  0  0  0
 23 24  1  0  0  0  0
 24 25  1  0  0  0  0
 24 44  1  0  0  0  0
 24 45  1  0  0  0  0
 25 20  1  0  0  0  0
 25 46  1  0  0  0  0
 25 47  1  0  0  0  0
M  CHG  1  20   1
M  END
$$$$

 OpenBabel09092411563D

 48 50  0  0  0  0  0  0  0  0999 V2000
    0.9086  -51.2352   21.0319 C   0  0  0  0  0  0  0  0  0  0  0  0
    0.5056  -49.9228   20.4275 C   0  0  0  0  0  0  0  0  0  0  0  0
    0.4593  -49.7666   18.9363 C   0  0  0  0  0  0  0  0  0  0  0  0
    0.8161  -50.9228   18.0497 C   0  0  0  0  0  0  0  0  0  0  0  0
    1.2190  -52.2351   18.6542 C   0  0  0  0  0  0  0  0  0  0  0  0
    1.2653  -52.3913   20.1453 C   0  0  0  0  0  0  0  0  0  0  0  0
    1.6683  -53.7037   20.7498 Cl  0  0  0  0  0  0  0  0  0  0  0  0
    0.9549  -51.3914   22.5231 N   0  0  0  0  0  0  0  0  0  0  0  0
   -1.5172  -52.3440   25.4780 C   0  0  0  0  0  0  0  0  0  0  0  0
   -0.2505  -52.1139   24.7083 C   0  0  0  0  0  0  0  0  0  0  0  0
   -0.3120  -51.6216   23.2927 C   0  0  0  0  0  0  0  0  0  0  0  0
   -1.6401  -51.3595   22.6468 C   0  0  0  0  0  0  0  0  0  0  0  0
   -2.9068  -51.5897   23.4164 C   0  0  0  0  0  0  0  0  0  0  0  0
   -2.8454  -52.0819   24.8320 C   0  0  0  0  0  0  0  0  0  0  0  0
   -4.1122  -52.3121   25.6017 F   0  0  0  0  0  0  0  0  0  0  0  0
   -0.2352  -53.5563   27.3849 C   0  0  0  0  0  0  0  0  0  0  0  0
   -1.4558  -52.8363   26.8936 O   0  0  0  0  0  0  0  0  0  0  0  0
    0.7698  -50.7666   16.5586 C   0  0  0  0  0  0  0  0  0  0  0  0
    1.2862  -51.8620   15.6733 C   0  0  0  0  0  0  0  0  0  0  0  0
    2.6904  -51.8035   15.1492 N   0  3  0  0  0  0  0  0  0  0  0  0
    3.8127  -52.4045   15.9424 C   0  0  0  0  0  0  0  0  0  0  0  0
    5.2169  -52.3460   15.4182 C   0  0  0  0  0  0  0  0  0  0  0  0
    5.4988  -51.6865   14.1008 O   0  0  0  0  0  0  0  0  0  0  0  0
    4.3765  -51.0855   13.3075 C   0  0  0  0  0  0  0  0  0  0  0  0
    2.9723  -51.1440   13.8317 C   0  0  0  0  0  0  0  0  0  0  0  0
    0.2602  -49.1274   21.0375 H   0  0  0  0  0  0  0  0  0  0  0  0
    0.1820  -48.8637   18.5204 H   0  0  0  0  0  0  0  0  0  0  0  0
    1.4644  -53.0305   18.0442 H   0  0  0  0  0  0  0  0  0  0  0  0
    1.8167  -51.3428   22.9967 H   0  0  0  0  0  0  0  0  0  0  0  0
    0.6633  -52.2943   25.1526 H   0  0  0  0  0  0  0  0  0  0  0  0
   -1.6824  -51.0208   21.6729 H   0  0  0  0  0  0  0  0  0  0  0  0
   -3.8206  -51.4094   22.9720 H   0  0  0  0  0  0  0  0  0  0  0  0
   -0.3712  -53.8302   28.4103 H   0  0  0  0  0  0  0  0  0  0  0  0
    0.6168  -52.9149   27.2971 H   0  0  0  0  0  0  0  0  0  0  0  0
   -0.0804  -54.4374   26.7979 H   0  0  0  0  0  0  0  0  0  0  0  0
    1.3324  -49.8876   16.3225 H   0  0  0  0  0  0  0  0  0  0  0  0
   -0.2786  -50.7517   16.3453 H   0  0  0  0  0  0  0  0  0  0  0  0
    0.6399  -51.9012   14.8214 H   0  0  0  0  0  0  0  0  0  0  0  0
    1.3003  -52.7146   16.3197 H   0  0  0  0  0  0  0  0  0  0  0  0
    2.9555  -51.4452   16.0667 H   0  0  0  0  0  0  0  0  0  0  0  0
    3.5762  -53.4393   16.0771 H   0  0  0  0  0  0  0  0  0  0  0  0
    3.8513  -51.7907   16.8180 H   0  0  0  0  0  0  0  0  0  0  0  0
    5.5587  -53.3567   15.3371 H   0  0  0  0  0  0  0  0  0  0  0  0
    5.7159  -51.7130   16.1219 H   0  0  0  0  0  0  0  0  0  0  0  0
    4.3722  -51.5771   12.3571 H   0  0  0  0  0  0  0  0  0  0  0  0
    4.5999  -50.0392   13.3190 H   0  0  0  0  0  0  0  0  0  0  0  0
    2.3896  -51.6597   13.0972 H   0  0  0  0  0  0  0  0  0  0  0  0
    2.7353  -50.1168   14.0151 H   0  0  0  0  0  0  0  0  0  0  0  0
  1  2  2  0  0  0  0
  2  3  1  0  0  0  0
  2 26  1  0  0  0  0
  3  4  2  0  0  0  0
  3 27  1  0  0  0  0
  4 18  1  0  0  0  0
  4  5  1  0  0  0  0
  5  6  2  0  0  0  0
  5 28  1  0  0  0  0
  6  7  1  0  0  0  0
  6  1  1  0  0  0  0
  8  1  1  0  0  0  0
  8 29  1  0  0  0  0
  9 10  2  0  0  0  0
 10 11  1  0  0  0  0
 10 30  1  0  0  0  0
 11  8  1  0  0  0  0
 11 12  2  0  0  0  0
 12 13  1  0  0  0  0
 12 31  1  0  0  0  0
 13 14  2  0  0  0  0
 13 32  1  0  0  0  0
 14 15  1  0  0  0  0
 14  9  1  0  0  0  0
 16 17  1  0  0  0  0
 16 33  1  0  0  0  0
 16 34  1  0  0  0  0
 16 35  1  0  0  0  0
 17  9  1  0  0  0  0
 18 19  1  0  0  0  0
 18 36  1  0  0  0  0
 18 37  1  0  0  0  0
 19 20  1  0  0  0  0
 19 38  1  0  0  0  0
 19 39  1  0  0  0  0
 20 21  1  0  0  0  0
 20 40  1  0  0  0  0
 21 22  1  0  0  0  0
 21 41  1  0  0  0  0
 21 42  1  0  0  0  0
 22 23  1  0  0  0  0
 22 43  1  0  0  0  0
 22 44  1  0  0  0  0
 23 24  1  0  0  0  0
 24 25  1  0  0  0  0
 24 45  1  0  0  0  0
 24 46  1  0  0  0  0
 25 20  1  0  0  0  0
 25 47  1  0  0  0  0
 25 48  1  0  0  0  0
M  CHG  1  20   1
M  END
$$$$

 OpenBabel09092411563D

 56 57  0  0  0  0  0  0  0  0999 V2000
   -1.3445  -50.1551   19.0301 N   0  0  0  0  0  0  0  0  0  0  0  0
   -2.4141  -50.5599   18.0595 C   0  0  0  0  0  0  0  0  0  0  0  0
   -1.5954  -50.2513   20.5058 C   0  0  0  0  0  0  0  0  0  0  0  0
   -2.9160  -50.7522   21.0109 O   0  0  0  0  0  0  0  0  0  0  0  0
   -0.5258  -49.8465   21.4764 N   0  0  0  0  0  0  0  0  0  0  0  0
   -0.7768  -49.9428   22.9522 C   0  0  0  0  0  0  0  0  0  0  0  0
   -1.7330  -48.9952   23.6136 C   0  0  0  0  0  0  0  0  0  0  0  0
   -1.9840  -49.0914   25.0893 C   0  0  0  0  0  0  0  0  0  0  0  0
   -1.2787  -50.1352   25.9035 C   0  0  0  0  0  0  0  0  0  0  0  0
   -0.3224  -51.0828   25.2421 C   0  0  0  0  0  0  0  0  0  0  0  0
   -0.0715  -50.9866   23.7664 C   0  0  0  0  0  0  0  0  0  0  0  0
    0.8848  -51.9342   23.1048 C   0  0  0  0  0  0  0  0  0  0  0  0
    0.3829  -52.1267   26.0563 O   0  0  0  0  0  0  0  0  0  0  0  0
    1.6013  -51.7612   26.8510 C   0  0  0  0  0  0  0  0  0  0  0  0
    1.6122  -51.9539   28.3386 C   0  0  0  0  0  0  0  0  0  0  0  0
    2.8091  -51.2030   26.1583 C   0  0  0  0  0  0  0  0  0  0  0  0
   -0.0239  -49.6542   18.5249 C   0  0  0  0  0  0  0  0  0  0  0  0
    1.5577  -51.7116   17.8844 N   0  3  1  0  0  0  0  0  0  0  0  0
    2.1897  -52.2097   16.6185 C   0  0  0  0  0  0  0  0  0  0  0  0
    1.7923  -51.2843   15.5067 C   0  0  0  0  0  0  0  0  0  0  0  0
    0.9147  -50.2144   16.0856 C   0  0  0  0  0  0  0  0  0  0  0  0
    0.7697  -50.4785   17.5551 C   0  0  2  0  0  0  0  0  0  0  0  0
    0.6357  -53.2804   19.7389 C   0  0  0  0  0  0  0  0  0  0  0  0
    1.6904  -52.3369   19.2413 C   0  0  0  0  0  0  0  0  0  0  0  0
   -3.2787  -50.8880   18.5979 H   0  0  0  0  0  0  0  0  0  0  0  0
   -2.0537  -51.3572   17.4436 H   0  0  0  0  0  0  0  0  0  0  0  0
   -2.6730  -49.7233   17.4447 H   0  0  0  0  0  0  0  0  0  0  0  0
    0.3409  -49.5176   21.1449 H   0  0  0  0  0  0  0  0  0  0  0  0
   -2.2182  -48.2770   23.0534 H   0  0  0  0  0  0  0  0  0  0  0  0
   -2.6419  -48.4395   25.5444 H   0  0  0  0  0  0  0  0  0  0  0  0
   -1.4514  -50.2014   26.9188 H   0  0  0  0  0  0  0  0  0  0  0  0
    1.2886  -52.6022   23.8366 H   0  0  0  0  0  0  0  0  0  0  0  0
    1.6795  -51.3799   22.6508 H   0  0  0  0  0  0  0  0  0  0  0  0
    0.3684  -52.4964   22.3550 H   0  0  0  0  0  0  0  0  0  0  0  0
    0.7411  -51.4943   26.2733 H   0  0  0  0  0  0  0  0  0  0  0  0
    2.5995  -52.2162   28.6570 H   0  0  0  0  0  0  0  0  0  0  0  0
    0.9326  -52.7374   28.6017 H   0  0  0  0  0  0  0  0  0  0  0  0
    1.3123  -51.0456   28.8181 H   0  0  0  0  0  0  0  0  0  0  0  0
    3.6876  -51.4548   26.7148 H   0  0  0  0  0  0  0  0  0  0  0  0
    2.7220  -50.1386   26.0917 H   0  0  0  0  0  0  0  0  0  0  0  0
    2.8792  -51.6174   25.1743 H   0  0  0  0  0  0  0  0  0  0  0  0
    0.5977  -49.5029   19.3826 H   0  0  0  0  0  0  0  0  0  0  0  0
   -0.2911  -48.7906   17.9525 H   0  0  0  0  0  0  0  0  0  0  0  0
    1.6480  -52.1365   18.8073 H   0  0  0  0  0  0  0  0  0  0  0  0
    1.8460  -53.2006   16.4065 H   0  0  0  0  0  0  0  0  0  0  0  0
    3.2547  -52.2339   16.7192 H   0  0  0  0  0  0  0  0  0  0  0  0
    1.2562  -51.8272   14.7565 H   0  0  0  0  0  0  0  0  0  0  0  0
    2.6603  -50.8499   15.0565 H   0  0  0  0  0  0  0  0  0  0  0  0
   -0.0463  -50.2393   15.6156 H   0  0  0  0  0  0  0  0  0  0  0  0
    1.3478  -49.2497   15.9223 H   0  0  0  0  0  0  0  0  0  0  0  0
    0.2034  -49.8906   18.2469 H   0  0  0  0  0  0  0  0  0  0  0  0
    0.8976  -53.6240   20.7178 H   0  0  0  0  0  0  0  0  0  0  0  0
    0.5631  -54.1164   19.0751 H   0  0  0  0  0  0  0  0  0  0  0  0
   -0.3059  -52.7738   19.7788 H   0  0  0  0  0  0  0  0  0  0  0  0
    2.6140  -52.8772   19.2434 H   0  0  0  0  0  0  0  0  0  0  0  0
    1.6071  -51.5024   19.9058 H   0  0  0  0  0  0  0  0  0  0  0  0
  1  2  1  0  0  0  0
  1  3  1  0  0  0  0
  2 25  1  0  0  0  0
  2 26  1  0  0  0  0
  2 27  1  0  0  0  0
  3  4  2  0  0  0  0
  3  5  1  0  0  0  0
  5  6  1  0  0  0  0
  5 28  1  0  0  0  0
  6  7  2  0  0  0  0
  7  8  1  0  0  0  0
  7 29  1  0  0  0  0
  8  9  2  0  0  0  0
  8 30  1  0  0  0  0
  9 10  1  0  0  0  0
  9 31  1  0  0  0  0
 10 13  1  0  0  0  0
 10 11  2  0  0  0  0
 11 12  1  0  0  0  0
 11  6  1  0  0  0  0
 12 32  1  0  0  0  0
 12 33  1  0  0  0  0
 12 34  1  0  0  0  0
 13 14  1  0  0  0  0
 14 15  1  0  0  0  0
 14 16  1  0  0  0  0
 14 35  1  0  0  0  0
 15 36  1  0  0  0  0
 15 37  1  0  0  0  0
 15 38  1  0  0  0  0
 16 39  1  0  0  0  0
 16 40  1  0  0  0  0
 16 41  1  0  0  0  0
 17  1  1  0  0  0  0
 17 42  1  0  0  0  0
 17 43  1  0  0  0  0
 18 19  1  0  0  0  0
 18 44  1  1  0  0  0
 19 20  1  0  0  0  0
 19 45  1  0  0  0  0
 19 46  1  0  0  0  0
 20 21  1  0  0  0  0
 20 47  1  0  0  0  0
 20 48  1  0  0  0  0
 21 22  1  0  0  0  0
 21 49  1  0  0  0  0
 21 50  1  0  0  0  0
 22 17  1  0  0  0  0
 22 18  1  0  0  0  0
 22 51  1  6  0  0  0
 23 24  1  0  0  0  0
 23 52  1  0  0  0  0
 23 53  1  0  0  0  0
 23 54  1  0  0  0  0
 24 18  1  0  0  0  0
 24 55  1  0  0  0  0
 24 56  1  0  0  0  0
M  CHG  1  18   1
M  END
$$$$

 OpenBabel09092411563D

 49 51  0  0  0  0  0  0  0  0999 V2000
    1.2168  -52.2649   21.2831 C   0  0  1  0  0  0  0  0  0  0  0  0
    2.1171  -53.0509   20.3767 C   0  0  0  0  0  0  0  0  0  0  0  0
    2.1218  -52.7763   18.9021 C   0  0  0  0  0  0  0  0  0  0  0  0
    1.2261  -51.7157   18.3339 C   0  0  0  0  0  0  0  0  0  0  0  0
    0.3258  -50.9296   19.2403 N   0  3  2  0  0  0  0  0  0  0  0  0
    0.3211  -51.2043   20.7149 C   0  0  0  0  0  0  0  0  0  0  0  0
    1.2919  -53.9514   23.2580 O   0  0  0  0  0  0  0  0  0  0  0  0
    1.2120  -52.5395   22.7578 C   0  0  0  0  0  0  0  0  0  0  0  0
    1.1275  -51.4022   23.7322 N   0  0  0  0  0  0  0  0  0  0  0  0
    1.1228  -51.6768   25.2069 C   0  0  0  0  0  0  0  0  0  0  0  0
    2.3378  -51.3692   26.0309 C   0  0  0  0  0  0  0  0  0  0  0  0
    2.3330  -51.6438   27.5055 C   0  0  0  0  0  0  0  0  0  0  0  0
    1.1133  -52.2260   28.1561 C   0  0  0  0  0  0  0  0  0  0  0  0
   -0.1017  -52.5337   27.3320 C   0  0  0  0  0  0  0  0  0  0  0  0
   -1.3214  -53.1159   27.9826 Cl  0  0  0  0  0  0  0  0  0  0  0  0
   -0.0969  -52.2591   25.8574 C   0  0  0  0  0  0  0  0  0  0  0  0
   -0.5699  -49.8690   18.6720 C   0  0  0  0  0  0  0  0  0  0  0  0
   -1.8986  -50.2444   18.0861 C   0  0  0  0  0  0  0  0  0  0  0  0
   -2.7302  -51.3110   18.7349 O   0  0  0  0  0  0  0  0  0  0  0  0
   -2.3960  -49.5531   16.8512 N   0  0  0  0  0  0  0  0  0  0  0  0
   -1.6793  -48.4733   16.0960 C   0  0  0  0  0  0  0  0  0  0  0  0
   -2.5377  -48.0731   14.9328 C   0  0  0  0  0  0  0  0  0  0  0  0
   -3.7850  -48.9057   14.9691 C   0  0  0  0  0  0  0  0  0  0  0  0
   -3.6974  -49.8204   16.1548 C   0  0  0  0  0  0  0  0  0  0  0  0
    2.2759  -52.2163   21.1387 H   0  0  0  0  0  0  0  0  0  0  0  0
    1.8547  -54.0811   20.4982 H   0  0  0  0  0  0  0  0  0  0  0  0
    3.0974  -52.7533   20.6854 H   0  0  0  0  0  0  0  0  0  0  0  0
    1.8613  -53.6934   18.4163 H   0  0  0  0  0  0  0  0  0  0  0  0
    3.1037  -52.3886   18.7272 H   0  0  0  0  0  0  0  0  0  0  0  0
    0.5967  -52.1960   17.6141 H   0  0  0  0  0  0  0  0  0  0  0  0
    1.9143  -50.9803   17.9727 H   0  0  0  0  0  0  0  0  0  0  0  0
    0.6928  -50.0017   19.4518 H   0  0  0  0  0  0  0  0  0  0  0  0
   -0.6810  -51.4740   20.9757 H   0  0  0  0  0  0  0  0  0  0  0  0
    0.7124  -50.3012   21.1346 H   0  0  0  0  0  0  0  0  0  0  0  0
    1.0751  -50.4755   23.4039 H   0  0  0  0  0  0  0  0  0  0  0  0
    3.1770  -50.9687   25.5833 H   0  0  0  0  0  0  0  0  0  0  0  0
    3.1689  -51.4322   28.0725 H   0  0  0  0  0  0  0  0  0  0  0  0
    1.1100  -52.4149   29.1707 H   0  0  0  0  0  0  0  0  0  0  0  0
   -0.9328  -52.4708   25.2904 H   0  0  0  0  0  0  0  0  0  0  0  0
   -0.0172  -49.3809   17.8966 H   0  0  0  0  0  0  0  0  0  0  0  0
   -0.8350  -49.2858   19.5290 H   0  0  0  0  0  0  0  0  0  0  0  0
   -0.7381  -48.8402   15.7434 H   0  0  0  0  0  0  0  0  0  0  0  0
   -1.4992  -47.6318   16.7319 H   0  0  0  0  0  0  0  0  0  0  0  0
   -2.0120  -48.2463   14.0170 H   0  0  0  0  0  0  0  0  0  0  0  0
   -2.7830  -47.0333   14.9922 H   0  0  0  0  0  0  0  0  0  0  0  0
   -3.8632  -49.4820   14.0709 H   0  0  0  0  0  0  0  0  0  0  0  0
   -4.6485  -48.2785   15.0465 H   0  0  0  0  0  0  0  0  0  0  0  0
   -3.7332  -50.8395   15.8307 H   0  0  0  0  0  0  0  0  0  0  0  0
   -4.5174  -49.6465   16.8198 H   0  0  0  0  0  0  0  0  0  0  0  0
  1  8  1  0  0  0  0
  1  2  1  0  0  0  0
  1 25  1  1  0  0  0
  2  3  1  0  0  0  0
  2 26  1  0  0  0  0
  2 27  1  0  0  0  0
  3  4  1  0  0  0  0
  3 28  1  0  0  0  0
  3 29  1  0  0  0  0
  4  5  1  0  0  0  0
  4 30  1  0  0  0  0
  4 31  1  0  0  0  0
  5 17  1  0  0  0  0
  5  6  1  0  0  0  0
  5 32  1  1  0  0  0
  6  1  1  0  0  0  0
  6 33  1  0  0  0  0
  6 34  1  0  0  0  0
  7  8  2  0  0  0  0
  8  9  1  0  0  0  0
  9 10  1  0  0  0  0
  9 35  1  0  0  0  0
 10 11  2  0  0  0  0
 11 12  1  0  0  0  0
 11 36  1  0  0  0  0
 12 13  2  0  0  0  0
 12 37  1  0  0  0  0
 13 14  1  0  0  0  0
 13 38  1  0  0  0  0
 14 15  1  0  0  0  0
 14 16  2  0  0  0  0
 16 10  1  0  0  0  0
 16 39  1  0  0  0  0
 17 18  1  0  0  0  0
 17 40  1  0  0  0  0
 17 41  1  0  0  0  0
 18 19  2  0  0  0  0
 18 20  1  0  0  0  0
 20 21  1  0  0  0  0
 21 22  1  0  0  0  0
 21 42  1  0  0  0  0
 21 43  1  0  0  0  0
 22 23  1  0  0  0  0
 22 44  1  0  0  0  0
 22 45  1  0  0  0  0
 23 24  1  0  0  0  0
 23 46  1  0  0  0  0
 23 47  1  0  0  0  0
 24 20  1  0  0  0  0
 24 48  1  0  0  0  0
 24 49  1  0  0  0  0
M  CHG  1   5   1
M  END
$$$$

 OpenBabel09092411563D

 40 41  0  0  0  0  0  0  0  0999 V2000
   -0.1361  -51.7954   19.6641 C   0  0  0  0  0  0  0  0  0  0  0  0
    0.9036  -51.6932   18.5878 C   0  0  0  0  0  0  0  0  0  0  0  0
    2.1765  -52.4792   18.6975 C   0  0  0  0  0  0  0  0  0  0  0  0
    2.4097  -53.3674   19.8835 N   0  0  0  0  0  0  0  0  0  0  0  0
    1.3700  -53.4696   20.9598 C   0  0  0  0  0  0  0  0  0  0  0  0
    0.0971  -52.6836   20.8501 C   0  0  0  0  0  0  0  0  0  0  0  0
   -1.6531  -49.8459   20.4690 N   0  0  0  0  0  0  0  0  0  0  0  0
   -2.9259  -49.0599   20.3593 C   0  0  0  0  0  0  0  0  0  0  0  0
   -1.4089  -51.0094   19.5544 C   0  0  0  0  0  0  0  0  0  0  0  0
   -2.4376  -51.3870   18.5302 O   0  0  0  0  0  0  0  0  0  0  0  0
   -0.9498  -49.5654   22.9543 C   0  0  0  0  0  0  0  0  0  0  0  0
   -0.6243  -49.4682   21.4933 C   0  0  0  0  0  0  0  0  0  0  0  0
    1.6031  -54.3578   22.1459 N   0  0  0  0  0  0  0  0  0  0  0  0
    1.1966  -53.9018   23.5158 C   0  0  0  0  0  0  0  0  0  0  0  0
    1.2310  -52.4426   23.8615 C   0  0  0  0  0  0  0  0  0  0  0  0
    0.8244  -51.9866   25.2315 C   0  0  0  0  0  0  0  0  0  0  0  0
    0.8588  -50.5274   25.5772 F   0  0  0  0  0  0  0  0  0  0  0  0
    0.3834  -52.9898   26.2557 C   0  0  0  0  0  0  0  0  0  0  0  0
    0.3490  -54.4491   25.9100 C   0  0  0  0  0  0  0  0  0  0  0  0
   -0.0920  -55.4523   26.9343 F   0  0  0  0  0  0  0  0  0  0  0  0
    0.7556  -54.9051   24.5401 C   0  0  0  0  0  0  0  0  0  0  0  0
   -0.0232  -52.5338   27.6257 O   0  0  0  0  0  0  0  0  0  0  0  0
   -1.4712  -52.5338   28.0171 C   0  0  0  0  0  0  0  0  0  0  0  0
    0.7432  -51.0821   17.7718 H   0  0  0  0  0  0  0  0  0  0  0  0
    2.8918  -52.4089   17.9570 H   0  0  0  0  0  0  0  0  0  0  0  0
   -0.6182  -52.7539   21.5906 H   0  0  0  0  0  0  0  0  0  0  0  0
   -3.5332  -49.4715   19.5804 H   0  0  0  0  0  0  0  0  0  0  0  0
   -2.6967  -48.0399   20.1315 H   0  0  0  0  0  0  0  0  0  0  0  0
   -3.4557  -49.1077   21.2877 H   0  0  0  0  0  0  0  0  0  0  0  0
   -0.1020  -49.2575   23.5299 H   0  0  0  0  0  0  0  0  0  0  0  0
   -1.1978  -50.5774   23.1979 H   0  0  0  0  0  0  0  0  0  0  0  0
   -1.7818  -48.9307   23.1773 H   0  0  0  0  0  0  0  0  0  0  0  0
    0.2254  -50.0960   21.3237 H   0  0  0  0  0  0  0  0  0  0  0  0
   -0.4978  -48.4170   21.3389 H   0  0  0  0  0  0  0  0  0  0  0  0
    2.0229  -55.2401   22.0252 H   0  0  0  0  0  0  0  0  0  0  0  0
    1.5344  -51.7524   23.1568 H   0  0  0  0  0  0  0  0  0  0  0  0
    0.7320  -55.9090   24.3023 H   0  0  0  0  0  0  0  0  0  0  0  0
   -1.5690  -52.1797   29.0221 H   0  0  0  0  0  0  0  0  0  0  0  0
   -1.8587  -53.5289   27.9503 H   0  0  0  0  0  0  0  0  0  0  0  0
   -2.0188  -51.8928   27.3582 H   0  0  0  0  0  0  0  0  0  0  0  0
  1  2  2  0  0  0  0
  2  3  1  0  0  0  0
  2 24  1  0  0  0  0
  3  4  2  0  0  0  0
  3 25  1  0  0  0  0
  4  5  1  0  0  0  0
  5 13  1  0  0  0  0
  5  6  2  0  0  0  0
  6  1  1  0  0  0  0
  6 26  1  0  0  0  0
  7  8  1  0  0  0  0
  7  9  1  0  0  0  0
  8 27  1  0  0  0  0
  8 28  1  0  0  0  0
  8 29  1  0  0  0  0
  9 10  2  0  0  0  0
  9  1  1  0  0  0  0
 11 12  1  0  0  0  0
 11 30  1  0  0  0  0
 11 31  1  0  0  0  0
 11 32  1  0  0  0  0
 12  7  1  0  0  0  0
 12 33  1  0  0  0  0
 12 34  1  0  0  0  0
 13 14  1  0  0  0  0
 13 35  1  0  0  0  0
 14 15  2  0  0  0  0
 15 16  1  0  0  0  0
 15 36  1  0  0  0  0
 16 17  1  0  0  0  0
 16 18  2  0  0  0  0
 18 22  1  0  0  0  0
 18 19  1  0  0  0  0
 19 20  1  0  0  0  0
 19 21  2  0  0  0  0
 21 14  1  0  0  0  0
 21 37  1  0  0  0  0
 22 23  1  0  0  0  0
 23 38  1  0  0  0  0
 23 39  1  0  0  0  0
 23 40  1  0  0  0  0
M  END
$$$$

 OpenBabel09092411563D

 59 60  0  0  0  0  0  0  0  0999 V2000
   -1.1656  -50.4786   17.9084 C   0  0  0  0  0  0  0  0  0  0  0  0
   -0.9466  -51.0240   19.2884 N   0  0  0  0  0  0  0  0  0  0  0  0
    0.3061  -51.7864   19.6035 C   0  0  0  0  0  0  0  0  0  0  0  0
    1.3399  -52.0034   18.5386 C   0  0  0  0  0  0  0  0  0  0  0  0
    1.1210  -51.4580   17.1586 C   0  0  0  0  0  0  0  0  0  0  0  0
   -0.1318  -50.6956   16.8435 N   0  0  0  0  0  0  0  0  0  0  0  0
    0.5251  -52.3318   20.9836 C   0  0  0  0  0  0  0  0  0  0  0  0
    1.2033  -53.6570   21.1675 C   0  0  0  0  0  0  0  0  0  0  0  0
    1.4223  -54.2024   22.5475 C   0  0  0  0  0  0  0  0  0  0  0  0
    0.9630  -53.4226   23.7438 C   0  0  0  0  0  0  0  0  0  0  0  0
    0.2847  -52.0974   23.5600 C   0  0  0  0  0  0  0  0  0  0  0  0
    0.0658  -51.5520   22.1798 C   0  0  0  0  0  0  0  0  0  0  0  0
   -0.1746  -51.3177   24.7562 C   0  0  0  0  0  0  0  0  0  0  0  0
    1.2355  -50.8723   25.0073 C   0  0  0  0  0  0  0  0  0  0  0  0
   -1.5847  -51.7630   24.5050 C   0  0  0  0  0  0  0  0  0  0  0  0
   -0.6339  -50.5379   25.9523 C   0  0  0  0  0  0  0  0  0  0  0  0
    1.1819  -53.9681   25.1238 O   0  0  0  0  0  0  0  0  0  0  0  0
    0.0945  -54.7457   25.8042 C   0  0  0  0  0  0  0  0  0  0  0  0
    2.1548  -51.6750   16.0936 N   0  0  0  0  0  0  0  0  0  0  0  0
    1.9306  -51.1396   14.7104 C   0  0  0  0  0  0  0  0  0  0  0  0
    3.4129  -52.4274   16.4117 C   0  0  0  0  0  0  0  0  0  0  0  0
   -2.4184  -49.7162   17.5933 N   0  0  0  0  0  0  0  0  0  0  0  0
   -3.4364  -49.4697   18.6669 C   0  0  0  0  0  0  0  0  0  0  0  0
   -2.6532  -49.2004   16.2045 C   0  0  0  0  0  0  0  0  0  0  0  0
   -1.9564  -51.1920   12.8432 C   0  0  0  0  0  0  0  0  0  0  0  0
   -1.7874  -50.2304   13.9819 N   0  0  0  0  0  0  0  0  0  0  0  0
   -2.8222  -50.1621   15.0658 C   0  0  0  0  0  0  0  0  0  0  0  0
   -4.0259  -51.0554   15.0109 O   0  0  0  0  0  0  0  0  0  0  0  0
    2.2018  -52.5280   18.7554 H   0  0  0  0  0  0  0  0  0  0  0  0
    1.5192  -54.1935   20.3445 H   0  0  0  0  0  0  0  0  0  0  0  0
    1.8890  -55.1141   22.6740 H   0  0  0  0  0  0  0  0  0  0  0  0
   -0.4008  -50.6402   22.0533 H   0  0  0  0  0  0  0  0  0  0  0  0
    1.8797  -51.2909   24.2625 H   0  0  0  0  0  0  0  0  0  0  0  0
    1.5472  -51.2039   25.9757 H   0  0  0  0  0  0  0  0  0  0  0  0
    1.2855  -49.8044   24.9628 H   0  0  0  0  0  0  0  0  0  0  0  0
   -1.6111  -52.3934   23.6408 H   0  0  0  0  0  0  0  0  0  0  0  0
   -2.2052  -50.9069   24.3411 H   0  0  0  0  0  0  0  0  0  0  0  0
   -1.9437  -52.3064   25.3539 H   0  0  0  0  0  0  0  0  0  0  0  0
    0.2053  -50.0530   26.4057 H   0  0  0  0  0  0  0  0  0  0  0  0
   -1.0866  -51.2020   26.6587 H   0  0  0  0  0  0  0  0  0  0  0  0
   -1.3481  -49.8024   25.6458 H   0  0  0  0  0  0  0  0  0  0  0  0
    0.4282  -55.0523   26.7735 H   0  0  0  0  0  0  0  0  0  0  0  0
   -0.1455  -55.6094   25.2199 H   0  0  0  0  0  0  0  0  0  0  0  0
   -0.7749  -54.1301   25.9045 H   0  0  0  0  0  0  0  0  0  0  0  0
    0.9874  -50.6359   14.6715 H   0  0  0  0  0  0  0  0  0  0  0  0
    1.9320  -51.9487   14.0102 H   0  0  0  0  0  0  0  0  0  0  0  0
    2.7125  -50.4523   14.4629 H   0  0  0  0  0  0  0  0  0  0  0  0
    3.3977  -52.7300   17.4379 H   0  0  0  0  0  0  0  0  0  0  0  0
    4.2594  -51.7963   16.2384 H   0  0  0  0  0  0  0  0  0  0  0  0
    3.4790  -53.2926   15.7857 H   0  0  0  0  0  0  0  0  0  0  0  0
   -3.1009  -49.9074   19.5838 H   0  0  0  0  0  0  0  0  0  0  0  0
   -4.3691  -49.9099   18.3819 H   0  0  0  0  0  0  0  0  0  0  0  0
   -3.5655  -48.4160   18.8009 H   0  0  0  0  0  0  0  0  0  0  0  0
   -1.8181  -48.5772   15.9612 H   0  0  0  0  0  0  0  0  0  0  0  0
   -3.6126  -48.7318   16.2751 H   0  0  0  0  0  0  0  0  0  0  0  0
   -1.1274  -51.1003   12.1729 H   0  0  0  0  0  0  0  0  0  0  0  0
   -2.8636  -50.9704   12.3209 H   0  0  0  0  0  0  0  0  0  0  0  0
   -1.9987  -52.1912   13.2235 H   0  0  0  0  0  0  0  0  0  0  0  0
   -0.9974  -49.6441   14.0179 H   0  0  0  0  0  0  0  0  0  0  0  0
  1  2  2  0  0  0  0
  2  3  1  0  0  0  0
  3  7  1  0  0  0  0
  3  4  2  0  0  0  0
  4  5  1  0  0  0  0
  4 29  1  0  0  0  0
  5 19  1  0  0  0  0
  5  6  2  0  0  0  0
  6  1  1  0  0  0  0
  7  8  2  0  0  0  0
  8  9  1  0  0  0  0
  8 30  1  0  0  0  0
  9 10  2  0  0  0  0
  9 31  1  0  0  0  0
 10 17  1  0  0  0  0
 10 11  1  0  0  0  0
 11 13  1  0  0  0  0
 11 12  2  0  0  0  0
 12  7  1  0  0  0  0
 12 32  1  0  0  0  0
 13 14  1  0  0  0  0
 13 15  1  0  0  0  0
 13 16  1  0  0  0  0
 14 33  1  0  0  0  0
 14 34  1  0  0  0  0
 14 35  1  0  0  0  0
 15 36  1  0  0  0  0
 15 37  1  0  0  0  0
 15 38  1  0  0  0  0
 16 39  1  0  0  0  0
 16 40  1  0  0  0  0
 16 41  1  0  0  0  0
 17 18  1  0  0  0  0
 18 42  1  0  0  0  0
 18 43  1  0  0  0  0
 18 44  1  0  0  0  0
 19 20  1  0  0  0  0
 19 21  1  0  0  0  0
 20 45  1  0  0  0  0
 20 46  1  0  0  0  0
 20 47  1  0  0  0  0
 21 48  1  0  0  0  0
 21 49  1  0  0  0  0
 21 50  1  0  0  0  0
 22 23  1  0  0  0  0
 22  1  1  0  0  0  0
 23 51  1  0  0  0  0
 23 52  1  0  0  0  0
 23 53  1  0  0  0  0
 24 22  1  0  0  0  0
 24 54  1  0  0  0  0
 24 55  1  0  0  0  0
 25 26  1  0  0  0  0
 25 56  1  0  0  0  0
 25 57  1  0  0  0  0
 25 58  1  0  0  0  0
 26 27  1  0  0  0  0
 26 59  1  0  0  0  0
 27 28  2  0  0  0  0
 27 24  1  0  0  0  0
M  END
$$$$

 OpenBabel09092411563D

 52 53  0  0  0  0  0  0  0  0999 V2000
    1.2961  -51.2246   16.4520 C   0  0  0  0  0  0  0  0  0  0  0  0
    0.2054  -50.6964   17.3360 C   0  0  0  0  0  0  0  0  0  0  0  0
    0.1694  -51.0709   18.7880 C   0  0  0  0  0  0  0  0  0  0  0  0
    1.2240  -51.9736   19.3562 C   0  0  0  0  0  0  0  0  0  0  0  0
    2.3147  -52.5018   18.4723 C   0  0  0  0  0  0  0  0  0  0  0  0
    2.3507  -52.1273   17.0202 C   0  0  0  0  0  0  0  0  0  0  0  0
    3.4415  -52.6556   16.1363 F   0  0  0  0  0  0  0  0  0  0  0  0
    1.1880  -52.3480   20.8082 C   0  0  0  0  0  0  0  0  0  0  0  0
    1.0563  -51.2816   21.8547 C   0  0  0  0  0  0  0  0  0  0  0  0
    1.0203  -51.6560   23.3068 C   0  0  0  0  0  0  0  0  0  0  0  0
    1.1159  -53.0970   23.7123 C   0  0  0  0  0  0  0  0  0  0  0  0
    1.2476  -54.1634   22.6658 C   0  0  0  0  0  0  0  0  0  0  0  0
    1.2836  -53.7890   21.2138 C   0  0  0  0  0  0  0  0  0  0  0  0
    1.0799  -53.4714   25.1644 O   0  0  0  0  0  0  0  0  0  0  0  0
   -0.2241  -53.4755   25.9058 C   0  0  0  0  0  0  0  0  0  0  0  0
   -0.7926  -52.1904   26.4304 C   0  0  0  0  0  0  0  0  0  0  0  0
   -0.2025  -51.5533   27.6535 O   0  0  0  0  0  0  0  0  0  0  0  0
   -1.9512  -51.5423   25.7319 N   0  0  0  0  0  0  0  0  0  0  0  0
   -2.5196  -50.2572   26.2566 C   0  0  0  0  0  0  0  0  0  0  0  0
   -2.5412  -52.1794   24.5089 C   0  0  0  0  0  0  0  0  0  0  0  0
    0.2656  -51.3483   14.0703 C   0  0  0  0  0  0  0  0  0  0  0  0
    1.3321  -50.8502   15.0000 O   0  0  0  0  0  0  0  0  0  0  0  0
   -0.9214  -50.5426   19.6719 C   0  0  0  0  0  0  0  0  0  0  0  0
   -1.2080  -49.0708   19.7115 N   0  3  0  0  0  0  0  0  0  0  0  0
   -0.2444  -48.1368   20.3817 C   0  0  0  0  0  0  0  0  0  0  0  0
   -2.4581  -48.5329   19.0807 C   0  0  0  0  0  0  0  0  0  0  0  0
   -0.5202  -50.0753   16.9452 H   0  0  0  0  0  0  0  0  0  0  0  0
    3.0403  -53.1228   18.8632 H   0  0  0  0  0  0  0  0  0  0  0  0
    0.9904  -50.2902   21.5757 H   0  0  0  0  0  0  0  0  0  0  0  0
    0.9298  -50.9222   24.0268 H   0  0  0  0  0  0  0  0  0  0  0  0
    1.3134  -55.1548   22.9448 H   0  0  0  0  0  0  0  0  0  0  0  0
    1.3741  -54.5228   20.4938 H   0  0  0  0  0  0  0  0  0  0  0  0
   -0.0988  -54.1242   26.7475 H   0  0  0  0  0  0  0  0  0  0  0  0
   -0.9310  -53.7702   25.1585 H   0  0  0  0  0  0  0  0  0  0  0  0
   -1.9758  -49.9559   27.1274 H   0  0  0  0  0  0  0  0  0  0  0  0
   -3.5491  -50.4000   26.5107 H   0  0  0  0  0  0  0  0  0  0  0  0
   -2.4394  -49.4989   25.5059 H   0  0  0  0  0  0  0  0  0  0  0  0
   -2.0109  -53.0815   24.2856 H   0  0  0  0  0  0  0  0  0  0  0  0
   -2.4619  -51.5050   23.6819 H   0  0  0  0  0  0  0  0  0  0  0  0
   -3.5717  -52.4061   24.6867 H   0  0  0  0  0  0  0  0  0  0  0  0
    0.4542  -50.9825   13.0826 H   0  0  0  0  0  0  0  0  0  0  0  0
   -0.6895  -50.9995   14.4036 H   0  0  0  0  0  0  0  0  0  0  0  0
    0.2713  -52.4182   14.0615 H   0  0  0  0  0  0  0  0  0  0  0  0
   -0.6787  -50.8370   20.6716 H   0  0  0  0  0  0  0  0  0  0  0  0
   -1.8093  -50.9545   19.2396 H   0  0  0  0  0  0  0  0  0  0  0  0
   -1.6147  -49.3238   20.6120 H   0  0  0  0  0  0  0  0  0  0  0  0
    0.3765  -47.6746   19.6430 H   0  0  0  0  0  0  0  0  0  0  0  0
    0.3660  -48.6860   21.0678 H   0  0  0  0  0  0  0  0  0  0  0  0
   -0.7884  -47.3836   20.9124 H   0  0  0  0  0  0  0  0  0  0  0  0
   -2.2413  -48.1993   18.0874 H   0  0  0  0  0  0  0  0  0  0  0  0
   -2.8254  -47.7120   19.6604 H   0  0  0  0  0  0  0  0  0  0  0  0
   -3.1994  -49.3037   19.0443 H   0  0  0  0  0  0  0  0  0  0  0  0
  1  2  2  0  0  0  0
  2  3  1  0  0  0  0
  2 27  1  0  0  0  0
  3 23  1  0  0  0  0
  3  4  2  0  0  0  0
  4  8  1  0  0  0  0
  4  5  1  0  0  0  0
  5  6  2  0  0  0  0
  5 28  1  0  0  0  0
  6  7  1  0  0  0  0
  6  1  1  0  0  0  0
  8  9  2  0  0  0  0
  9 10  1  0  0  0  0
  9 29  1  0  0  0  0
 10 11  2  0  0  0  0
 10 30  1  0  0  0  0
 11 14  1  0  0  0  0
 11 12  1  0  0  0  0
 12 13  2  0  0  0  0
 12 31  1  0  0  0  0
 13  8  1  0  0  0  0
 13 32  1  0  0  0  0
 14 15  1  0  0  0  0
 15 16  1  0  0  0  0
 15 33  1  0  0  0  0
 15 34  1  0  0  0  0
 16 17  2  0  0  0  0
 16 18  1  0  0  0  0
 18 19  1  0  0  0  0
 18 20  1  0  0  0  0
 19 35  1  0  0  0  0
 19 36  1  0  0  0  0
 19 37  1  0  0  0  0
 20 38  1  0  0  0  0
 20 39  1  0  0  0  0
 20 40  1  0  0  0  0
 21 22  1  0  0  0  0
 21 41  1  0  0  0  0
 21 42  1  0  0  0  0
 21 43  1  0  0  0  0
 22  1  1  0  0  0  0
 23 24  1  0  0  0  0
 23 44  1  0  0  0  0
 23 45  1  0  0  0  0
 24 25  1  0  0  0  0
 24 26  1  0  0  0  0
 24 46  1  0  0  0  0
 25 47  1  0  0  0  0
 25 48  1  0  0  0  0
 25 49  1  0  0  0  0
 26 50  1  0  0  0  0
 26 51  1  0  0  0  0
 26 52  1  0  0  0  0
M  CHG  1  24   1
M  END
$$$$

 OpenBabel09092411563D

 44 46  0  0  0  0  0  0  0  0999 V2000
    1.2493  -52.2656   20.7148 C   0  0  0  0  0  0  0  0  0  0  0  0
    1.5465  -53.7058   21.0107 C   0  0  0  0  0  0  0  0  0  0  0  0
    1.4048  -54.2289   22.4093 C   0  0  0  0  0  0  0  0  0  0  0  0
    0.9658  -53.3118   23.5122 C   0  0  0  0  0  0  0  0  0  0  0  0
    0.6685  -51.8717   23.2164 C   0  0  0  0  0  0  0  0  0  0  0  0
    0.8103  -51.3485   21.8177 C   0  0  0  0  0  0  0  0  0  0  0  0
    1.3910  -51.7424   19.3162 N   0  0  0  0  0  0  0  0  0  0  0  0
   -2.1439  -49.8888   17.2381 C   0  0  0  0  0  0  0  0  0  0  0  0
   -2.3546  -50.9697   18.2566 N   0  0  0  0  0  0  0  0  0  0  0  0
   -1.1763  -51.5875   18.9493 C   0  0  0  0  0  0  0  0  0  0  0  0
    0.2127  -51.1246   18.6235 C   0  0  0  0  0  0  0  0  0  0  0  0
    0.4235  -50.0437   17.6050 C   0  0  0  0  0  0  0  0  0  0  0  0
   -0.7548  -49.4259   16.9123 C   0  0  0  0  0  0  0  0  0  0  0  0
   -0.5441  -48.3450   15.8938 Cl  0  0  0  0  0  0  0  0  0  0  0  0
   -3.9062  -49.9270   15.3296 C   0  0  0  0  0  0  0  0  0  0  0  0
   -3.3222  -49.2710   16.5454 O   0  0  0  0  0  0  0  0  0  0  0  0
    0.2295  -50.9546   24.3193 C   0  0  0  0  0  0  0  0  0  0  0  0
    0.3048  -51.4087   25.7469 N   0  3  0  0  0  0  0  0  0  0  0  0
   -0.8995  -52.0131   26.4062 C   0  0  0  0  0  0  0  0  0  0  0  0
   -0.8242  -52.4672   27.8338 C   0  0  0  0  0  0  0  0  0  0  0  0
    0.4552  -52.3169   28.6021 O   0  0  0  0  0  0  0  0  0  0  0  0
    1.6594  -51.7125   27.9429 C   0  0  0  0  0  0  0  0  0  0  0  0
    1.5842  -51.2584   26.5152 C   0  0  0  0  0  0  0  0  0  0  0  0
    1.8485  -54.3368   20.2519 H   0  0  0  0  0  0  0  0  0  0  0  0
    1.6093  -55.2197   22.6128 H   0  0  0  0  0  0  0  0  0  0  0  0
    0.8683  -53.6717   24.4745 H   0  0  0  0  0  0  0  0  0  0  0  0
    0.6058  -50.3576   21.6142 H   0  0  0  0  0  0  0  0  0  0  0  0
    2.2574  -51.8045   18.8529 H   0  0  0  0  0  0  0  0  0  0  0  0
   -1.3213  -52.3311   19.6501 H   0  0  0  0  0  0  0  0  0  0  0  0
    1.3792  -49.7251   17.3809 H   0  0  0  0  0  0  0  0  0  0  0  0
   -4.7334  -49.3484   14.9747 H   0  0  0  0  0  0  0  0  0  0  0  0
   -4.2415  -50.9113   15.5818 H   0  0  0  0  0  0  0  0  0  0  0  0
   -3.1603  -49.9893   14.5649 H   0  0  0  0  0  0  0  0  0  0  0  0
   -0.7938  -50.7081   24.1271 H   0  0  0  0  0  0  0  0  0  0  0  0
    0.9435  -50.1588   24.2763 H   0  0  0  0  0  0  0  0  0  0  0  0
    0.8679  -52.1806   26.1039 H   0  0  0  0  0  0  0  0  0  0  0  0
   -1.1738  -52.8680   25.8242 H   0  0  0  0  0  0  0  0  0  0  0  0
   -1.5938  -51.1998   26.4431 H   0  0  0  0  0  0  0  0  0  0  0  0
   -1.0675  -53.5092   27.8397 H   0  0  0  0  0  0  0  0  0  0  0  0
   -1.4939  -51.8028   28.3389 H   0  0  0  0  0  0  0  0  0  0  0  0
    2.4390  -52.4436   27.9938 H   0  0  0  0  0  0  0  0  0  0  0  0
    1.8041  -50.8006   28.4837 H   0  0  0  0  0  0  0  0  0  0  0  0
    2.3328  -51.8026   25.9781 H   0  0  0  0  0  0  0  0  0  0  0  0
    1.7044  -50.1977   26.5878 H   0  0  0  0  0  0  0  0  0  0  0  0
  1  2  2  0  0  0  0
  2  3  1  0  0  0  0
  2 24  1  0  0  0  0
  3  4  2  0  0  0  0
  3 25  1  0  0  0  0
  4  5  1  0  0  0  0
  4 26  1  0  0  0  0
  5 17  1  0  0  0  0
  5  6  2  0  0  0  0
  6  1  1  0  0  0  0
  6 27  1  0  0  0  0
  7  1  1  0  0  0  0
  7 28  1  0  0  0  0
  8  9  2  0  0  0  0
  9 10  1  0  0  0  0
 10 11  2  0  0  0  0
 10 29  1  0  0  0  0
 11  7  1  0  0  0  0
 11 12  1  0  0  0  0
 12 13  2  0  0  0  0
 12 30  1  0  0  0  0
 13 14  1  0  0  0  0
 13  8  1  0  0  0  0
 15 16  1  0  0  0  0
 15 31  1  0  0  0  0
 15 32  1  0  0  0  0
 15 33  1  0  0  0  0
 16  8  1  0  0  0  0
 17 18  1  0  0  0  0
 17 34  1  0  0  0  0
 17 35  1  0  0  0  0
 18 19  1  0  0  0  0
 18 36  1  0  0  0  0
 19 20  1  0  0  0  0
 19 37  1  0  0  0  0
 19 38  1  0  0  0  0
 20 21  1  0  0  0  0
 20 39  1  0  0  0  0
 20 40  1  0  0  0  0
 21 22  1  0  0  0  0
 22 23  1  0  0  0  0
 22 41  1  0  0  0  0
 22 42  1  0  0  0  0
 23 18  1  0  0  0  0
 23 43  1  0  0  0  0
 23 44  1  0  0  0  0
M  CHG  1  18   1
M  END
$$$$

 OpenBabel09092411563D

 35 37  0  0  0  0  0  0  0  0999 V2000
    0.0428  -49.9104   21.7005 N   0  0  0  0  0  0  0  0  0  0  0  0
   -0.3189  -50.7437   22.8942 C   0  0  0  0  0  0  0  0  0  0  0  0
   -1.6983  -51.3203   23.0161 C   0  0  0  0  0  0  0  0  0  0  0  0
   -2.0601  -52.1536   24.2097 C   0  0  0  0  0  0  0  0  0  0  0  0
   -1.0424  -52.4103   25.2815 C   0  0  0  0  0  0  0  0  0  0  0  0
    0.3369  -51.8337   25.1596 C   0  0  0  0  0  0  0  0  0  0  0  0
    0.6987  -51.0004   23.9659 C   0  0  0  0  0  0  0  0  0  0  0  0
    1.3545  -52.0904   26.2312 N   0  0  0  0  0  0  0  0  0  0  0  0
    0.9928  -52.9237   27.4248 C   0  0  0  0  0  0  0  0  0  0  0  0
   -0.3866  -53.5002   27.5468 C   0  0  0  0  0  0  0  0  0  0  0  0
   -1.4042  -53.2436   26.4751 O   0  0  0  0  0  0  0  0  0  0  0  0
    1.4875  -51.8920   17.9274 C   0  0  0  0  0  0  0  0  0  0  0  0
    1.6453  -52.5870   19.2474 C   0  0  0  0  0  0  0  0  0  0  0  0
    1.1637  -51.9265   20.5050 C   0  0  0  0  0  0  0  0  0  0  0  0
    0.5244  -50.5710   20.4428 C   0  0  0  0  0  0  0  0  0  0  0  0
    0.3666  -49.8760   19.1230 C   0  0  0  0  0  0  0  0  0  0  0  0
    0.8481  -50.5365   17.8652 C   0  0  0  0  0  0  0  0  0  0  0  0
    0.6903  -49.8416   16.5454 Cl  0  0  0  0  0  0  0  0  0  0  0  0
    3.3652  -52.3057   16.1802 C   0  0  0  0  0  0  0  0  0  0  0  0
    1.9690  -52.5526   16.6697 O   0  0  0  0  0  0  0  0  0  0  0  0
   -0.0359  -48.9299   21.7425 H   0  0  0  0  0  0  0  0  0  0  0  0
   -2.3984  -51.1437   22.2788 H   0  0  0  0  0  0  0  0  0  0  0  0
   -3.0091  -52.5503   24.2936 H   0  0  0  0  0  0  0  0  0  0  0  0
    1.6477  -50.6037   23.8820 H   0  0  0  0  0  0  0  0  0  0  0  0
    2.2598  -51.7120   26.1512 H   0  0  0  0  0  0  0  0  0  0  0  0
    1.1490  -52.3110   28.2880 H   0  0  0  0  0  0  0  0  0  0  0  0
    1.6125  -53.7893   27.3173 H   0  0  0  0  0  0  0  0  0  0  0  0
   -0.7986  -53.1248   28.4602 H   0  0  0  0  0  0  0  0  0  0  0  0
   -0.2192  -54.5549   27.4795 H   0  0  0  0  0  0  0  0  0  0  0  0
    2.0852  -53.5196   19.2902 H   0  0  0  0  0  0  0  0  0  0  0  0
    1.2722  -52.4047   21.4131 H   0  0  0  0  0  0  0  0  0  0  0  0
   -0.0732  -48.9434   19.0803 H   0  0  0  0  0  0  0  0  0  0  0  0
    3.5291  -52.8558   15.2772 H   0  0  0  0  0  0  0  0  0  0  0  0
    4.0654  -52.6242   16.9239 H   0  0  0  0  0  0  0  0  0  0  0  0
    3.4971  -51.2610   15.9903 H   0  0  0  0  0  0  0  0  0  0  0  0
  1  2  1  0  0  0  0
  1 21  1  0  0  0  0
  2  3  2  0  0  0  0
  3  4  1  0  0  0  0
  3 22  1  0  0  0  0
  4  5  2  0  0  0  0
  4 23  1  0  0  0  0
  5  6  1  0  0  0  0
  6  7  2  0  0  0  0
  6  8  1  0  0  0  0
  7  2  1  0  0  0  0
  7 24  1  0  0  0  0
  8  9  1  0  0  0  0
  8 25  1  0  0  0  0
  9 10  1  0  0  0  0
  9 26  1  0  0  0  0
  9 27  1  0  0  0  0
 10 11  1  0  0  0  0
 10 28  1  0  0  0  0
 10 29  1  0  0  0  0
 11  5  1  0  0  0  0
 12 13  2  0  0  0  0
 13 14  1  0  0  0  0
 13 30  1  0  0  0  0
 14 15  2  0  0  0  0
 14 31  1  0  0  0  0
 15  1  1  0  0  0  0
 15 16  1  0  0  0  0
 16 17  2  0  0  0  0
 16 32  1  0  0  0  0
 17 18  1  0  0  0  0
 17 12  1  0  0  0  0
 19 20  1  0  0  0  0
 19 33  1  0  0  0  0
 19 34  1  0  0  0  0
 19 35  1  0  0  0  0
 20 12  1  0  0  0  0
M  END
$$$$

 OpenBabel09092411563D

 38 40  0  0  0  0  0  0  0  0999 V2000
    0.0049  -52.0398   21.5061 C   0  0  0  0  0  0  0  0  0  0  0  0
    1.1162  -53.0445   21.5802 C   0  0  0  0  0  0  0  0  0  0  0  0
    2.0102  -53.2627   20.3957 C   0  0  0  0  0  0  0  0  0  0  0  0
    1.7929  -52.4762   19.1370 C   0  0  0  0  0  0  0  0  0  0  0  0
    0.6816  -51.4715   19.0629 C   0  0  0  0  0  0  0  0  0  0  0  0
   -0.2124  -51.2533   20.2474 C   0  0  0  0  0  0  0  0  0  0  0  0
    0.4643  -50.6851   17.8042 N   0  0  0  0  0  0  0  0  0  0  0  0
    1.3582  -50.9033   16.6197 C   0  0  0  0  0  0  0  0  0  0  0  0
    2.4696  -51.9080   16.6938 C   0  0  2  0  0  0  0  0  0  0  0  0
    3.3636  -52.1262   15.5093 C   0  0  0  0  0  0  0  0  0  0  0  0
    2.6869  -52.6945   17.9525 O   0  0  0  0  0  0  0  0  0  0  0  0
   -0.8891  -51.8215   22.6906 N   0  0  0  0  0  0  0  0  0  0  0  0
   -0.1853  -52.9578   26.4274 C   0  0  0  0  0  0  0  0  0  0  0  0
   -0.7557  -52.9216   25.0405 C   0  0  0  0  0  0  0  0  0  0  0  0
   -0.3188  -51.8578   24.0775 C   0  0  0  0  0  0  0  0  0  0  0  0
    0.6884  -50.8301   24.5013 C   0  0  0  0  0  0  0  0  0  0  0  0
    1.2587  -50.8664   25.8882 C   0  0  0  0  0  0  0  0  0  0  0  0
    0.8218  -51.9302   26.8512 C   0  0  0  0  0  0  0  0  0  0  0  0
    1.3921  -51.9664   28.2381 Cl  0  0  0  0  0  0  0  0  0  0  0  0
    0.0686  -55.3531   27.4012 C   0  0  0  0  0  0  0  0  0  0  0  0
   -0.6222  -54.0216   27.3905 O   0  0  0  0  0  0  0  0  0  0  0  0
    1.2657  -53.5856   22.4461 H   0  0  0  0  0  0  0  0  0  0  0  0
    2.7748  -53.9539   20.4467 H   0  0  0  0  0  0  0  0  0  0  0  0
   -0.9770  -50.5621   20.1964 H   0  0  0  0  0  0  0  0  0  0  0  0
   -0.2651  -50.0257   17.7555 H   0  0  0  0  0  0  0  0  0  0  0  0
    1.8095  -49.9594   16.3953 H   0  0  0  0  0  0  0  0  0  0  0  0
    0.6987  -51.3197   15.8872 H   0  0  0  0  0  0  0  0  0  0  0  0
    3.3391  -51.7348   16.0948 H   0  0  0  0  0  0  0  0  0  0  0  0
    2.9320  -52.8662   14.8682 H   0  0  0  0  0  0  0  0  0  0  0  0
    4.3236  -52.4601   15.8437 H   0  0  0  0  0  0  0  0  0  0  0  0
    3.4729  -51.2080   14.9710 H   0  0  0  0  0  0  0  0  0  0  0  0
   -1.8502  -51.6544   22.5578 H   0  0  0  0  0  0  0  0  0  0  0  0
   -1.4487  -53.6286   24.7489 H   0  0  0  0  0  0  0  0  0  0  0  0
    0.9889  -50.0982   23.8387 H   0  0  0  0  0  0  0  0  0  0  0  0
    1.9517  -50.1595   26.1798 H   0  0  0  0  0  0  0  0  0  0  0  0
   -0.3746  -55.9789   28.1475 H   0  0  0  0  0  0  0  0  0  0  0  0
    1.1064  -55.2147   27.6221 H   0  0  0  0  0  0  0  0  0  0  0  0
   -0.0332  -55.8155   26.4416 H   0  0  0  0  0  0  0  0  0  0  0  0
  1  2  2  0  0  0  0
  2  3  1  0  0  0  0
  2 22  1  0  0  0  0
  3  4  2  0  0  0  0
  3 23  1  0  0  0  0
  4  5  1  0  0  0  0
  5  6  2  0  0  0  0
  5  7  1  0  0  0  0
  6  1  1  0  0  0  0
  6 24  1  0  0  0  0
  7  8  1  0  0  0  0
  7 25  1  0  0  0  0
  8  9  1  0  0  0  0
  8 26  1  0  0  0  0
  8 27  1  0  0  0  0
  9 10  1  0  0  0  0
  9 11  1  0  0  0  0
  9 28  1  1  0  0  0
 10 29  1  0  0  0  0
 10 30  1  0  0  0  0
 10 31  1  0  0  0  0
 11  4  1  0  0  0  0
 12  1  1  0  0  0  0
 12 32  1  0  0  0  0
 13 14  2  0  0  0  0
 14 15  1  0  0  0  0
 14 33  1  0  0  0  0
 15 12  1  0  0  0  0
 15 16  2  0  0  0  0
 16 17  1  0  0  0  0
 16 34  1  0  0  0  0
 17 18  2  0  0  0  0
 17 35  1  0  0  0  0
 18 19  1  0  0  0  0
 18 13  1  0  0  0  0
 20 21  1  0  0  0  0
 20 36  1  0  0  0  0
 20 37  1  0  0  0  0
 20 38  1  0  0  0  0
 21 13  1  0  0  0  0
M  END
$$$$

 OpenBabel09092411563D

 34 35  0  0  0  0  0  0  0  0999 V2000
    4.2784  -51.3669   14.2891 C   0  0  0  0  0  0  0  0  0  0  0  0
    4.6054  -52.1002   15.5561 C   0  0  0  0  0  0  0  0  0  0  0  0
    3.5074  -52.4966   16.4981 C   0  0  0  0  0  0  0  0  0  0  0  0
    2.0824  -52.1597   16.1730 C   0  0  0  0  0  0  0  0  0  0  0  0
    1.7553  -51.4264   14.9060 C   0  0  0  0  0  0  0  0  0  0  0  0
    2.8534  -51.0300   13.9641 C   0  0  0  0  0  0  0  0  0  0  0  0
    7.0360  -51.5784   11.4430 C   0  0  0  0  0  0  0  0  0  0  0  0
    5.9380  -51.9748   12.3849 N   0  0  0  0  0  0  0  0  0  0  0  0
    5.4016  -53.3755   12.3645 C   0  0  0  0  0  0  0  0  0  0  0  0
    5.3764  -50.9705   13.3472 C   0  0  0  0  0  0  0  0  0  0  0  0
    5.9128  -49.5699   13.3675 O   0  0  0  0  0  0  0  0  0  0  0  0
    0.9844  -52.5561   17.1150 N   0  0  0  0  0  0  0  0  0  0  0  0
    1.0942  -52.2293   18.5748 C   0  0  0  0  0  0  0  0  0  0  0  0
    1.5542  -53.2765   19.5452 N   0  0  0  0  0  0  0  0  0  0  0  0
    1.6640  -52.9497   21.0051 C   0  0  0  0  0  0  0  0  0  0  0  0
    1.3137  -51.5757   21.4945 C   0  0  0  0  0  0  0  0  0  0  0  0
    1.4235  -51.2489   22.9544 F   0  0  0  0  0  0  0  0  0  0  0  0
    0.8537  -50.5286   20.5241 C   0  0  0  0  0  0  0  0  0  0  0  0
    0.7439  -50.8553   19.0642 C   0  0  0  0  0  0  0  0  0  0  0  0
    0.2838  -49.8081   18.0938 Cl  0  0  0  0  0  0  0  0  0  0  0  0
    0.3302  -51.0895   14.5809 C   0  0  0  0  0  0  0  0  0  0  0  0
   -1.0948  -50.7526   14.2559 N   0  0  0  0  0  0  0  0  0  0  0  0
    5.5858  -52.3320   15.7797 H   0  0  0  0  0  0  0  0  0  0  0  0
    3.7324  -53.0011   17.3698 H   0  0  0  0  0  0  0  0  0  0  0  0
    2.6284  -50.5254   13.0924 H   0  0  0  0  0  0  0  0  0  0  0  0
    7.3069  -52.4180   10.8375 H   0  0  0  0  0  0  0  0  0  0  0  0
    7.8873  -51.2538   12.0040 H   0  0  0  0  0  0  0  0  0  0  0  0
    6.6970  -50.7807   10.8156 H   0  0  0  0  0  0  0  0  0  0  0  0
    5.9185  -53.9446   11.6203 H   0  0  0  0  0  0  0  0  0  0  0  0
    4.3567  -53.3540   12.1351 H   0  0  0  0  0  0  0  0  0  0  0  0
    5.5470  -53.8271   13.3236 H   0  0  0  0  0  0  0  0  0  0  0  0
    0.1917  -53.0308   16.7751 H   0  0  0  0  0  0  0  0  0  0  0  0
    1.9805  -53.6702   21.6728 H   0  0  0  0  0  0  0  0  0  0  0  0
    0.6127  -49.5833   20.8608 H   0  0  0  0  0  0  0  0  0  0  0  0
  1  2  2  0  0  0  0
  2  3  1  0  0  0  0
  2 23  1  0  0  0  0
  3  4  2  0  0  0  0
  3 24  1  0  0  0  0
  4 12  1  0  0  0  0
  4  5  1  0  0  0  0
  5 21  1  0  0  0  0
  5  6  2  0  0  0  0
  6  1  1  0  0  0  0
  6 25  1  0  0  0  0
  7  8  1  0  0  0  0
  7 26  1  0  0  0  0
  7 27  1  0  0  0  0
  7 28  1  0  0  0  0
  8  9  1  0  0  0  0
  8 10  1  0  0  0  0
  9 29  1  0  0  0  0
  9 30  1  0  0  0  0
  9 31  1  0  0  0  0
 10 11  2  0  0  0  0
 10  1  1  0  0  0  0
 12 13  1  0  0  0  0
 12 32  1  0  0  0  0
 13 14  2  0  0  0  0
 14 15  1  0  0  0  0
 15 16  2  0  0  0  0
 15 33  1  0  0  0  0
 16 17  1  0  0  0  0
 16 18  1  0  0  0  0
 18 19  2  0  0  0  0
 18 34  1  0  0  0  0
 19 20  1  0  0  0  0
 19 13  1  0  0  0  0
 21 22  3  0  0  0  0
M  END
$$$$

 OpenBabel09092411563D

 36 37  0  0  0  0  0  0  0  0999 V2000
   -0.2882  -51.0166   20.2375 C   0  0  0  0  0  0  0  0  0  0  0  0
    0.5642  -51.1314   19.0086 C   0  0  0  0  0  0  0  0  0  0  0  0
    1.5830  -52.2272   18.9022 C   0  0  0  0  0  0  0  0  0  0  0  0
    1.7493  -53.2082   20.0246 C   0  0  0  0  0  0  0  0  0  0  0  0
    0.8969  -53.0934   21.2534 C   0  0  0  0  0  0  0  0  0  0  0  0
   -0.1219  -51.9976   21.3599 C   0  0  0  0  0  0  0  0  0  0  0  0
    2.4354  -52.3419   17.6732 C   0  0  0  0  0  0  0  0  0  0  0  0
    3.2879  -52.4567   16.4444 N   0  0  0  0  0  0  0  0  0  0  0  0
   -0.9743  -51.8829   22.5888 N   0  0  0  0  0  0  0  0  0  0  0  0
   -0.3330  -51.6919   23.9313 C   0  0  0  0  0  0  0  0  0  0  0  0
    1.1200  -51.3307   24.0238 N   0  0  0  0  0  0  0  0  0  0  0  0
    1.7613  -51.1397   25.3663 C   0  0  0  0  0  0  0  0  0  0  0  0
    0.9497  -51.3099   26.6162 C   0  0  0  0  0  0  0  0  0  0  0  0
    1.5910  -51.1189   27.9587 F   0  0  0  0  0  0  0  0  0  0  0  0
   -0.5032  -51.6710   26.5237 C   0  0  0  0  0  0  0  0  0  0  0  0
   -1.1446  -51.8620   25.1812 C   0  0  0  0  0  0  0  0  0  0  0  0
   -2.5975  -52.2232   25.0887 Cl  0  0  0  0  0  0  0  0  0  0  0  0
   -1.3069  -49.9208   20.3439 C   0  0  0  0  0  0  0  0  0  0  0  0
   -1.5060  -48.3880   22.4322 C   0  0  0  0  0  0  0  0  0  0  0  0
   -0.9656  -48.6460   21.0569 N   0  3  0  0  0  0  0  0  0  0  0  0
   -0.0836  -47.6292   20.3947 C   0  0  0  0  0  0  0  0  0  0  0  0
    0.4497  -50.4565   18.2363 H   0  0  0  0  0  0  0  0  0  0  0  0
    2.4502  -53.9621   19.9514 H   0  0  0  0  0  0  0  0  0  0  0  0
    1.0113  -53.7684   22.0256 H   0  0  0  0  0  0  0  0  0  0  0  0
   -1.9547  -51.9330   22.5143 H   0  0  0  0  0  0  0  0  0  0  0  0
    2.7609  -50.8912   25.4300 H   0  0  0  0  0  0  0  0  0  0  0  0
   -1.0616  -51.7880   27.3837 H   0  0  0  0  0  0  0  0  0  0  0  0
   -2.1566  -50.3365   20.8441 H   0  0  0  0  0  0  0  0  0  0  0  0
   -1.4380  -49.6075   19.3292 H   0  0  0  0  0  0  0  0  0  0  0  0
   -1.1596  -47.4368   22.7789 H   0  0  0  0  0  0  0  0  0  0  0  0
   -1.1683  -49.1548   23.0977 H   0  0  0  0  0  0  0  0  0  0  0  0
   -2.5755  -48.3884   22.4010 H   0  0  0  0  0  0  0  0  0  0  0  0
   -1.8292  -48.3513   20.6012 H   0  0  0  0  0  0  0  0  0  0  0  0
    0.9225  -47.7526   20.7374 H   0  0  0  0  0  0  0  0  0  0  0  0
   -0.4261  -46.6458   20.6406 H   0  0  0  0  0  0  0  0  0  0  0  0
   -0.1181  -47.7640   19.3338 H   0  0  0  0  0  0  0  0  0  0  0  0
  1  2  2  0  0  0  0
  2  3  1  0  0  0  0
  2 22  1  0  0  0  0
  3  7  1  0  0  0  0
  3  4  2  0  0  0  0
  4  5  1  0  0  0  0
  4 23  1  0  0  0  0
  5  6  2  0  0  0  0
  5 24  1  0  0  0  0
  6  9  1  0  0  0  0
  6  1  1  0  0  0  0
  7  8  3  0  0  0  0
  9 10  1  0  0  0  0
  9 25  1  0  0  0  0
 10 11  2  0  0  0  0
 11 12  1  0  0  0  0
 12 13  2  0  0  0  0
 12 26  1  0  0  0  0
 13 14  1  0  0  0  0
 13 15  1  0  0  0  0
 15 16  2  0  0  0  0
 15 27  1  0  0  0  0
 16 17  1  0  0  0  0
 16 10  1  0  0  0  0
 18  1  1  0  0  0  0
 18 28  1  0  0  0  0
 18 29  1  0  0  0  0
 19 20  1  0  0  0  0
 19 30  1  0  0  0  0
 19 31  1  0  0  0  0
 19 32  1  0  0  0  0
 20 21  1  0  0  0  0
 20 18  1  0  0  0  0
 20 33  1  0  0  0  0
 21 34  1  0  0  0  0
 21 35  1  0  0  0  0
 21 36  1  0  0  0  0
M  CHG  1  20   1
M  END
$$$$

 OpenBabel09092411563D

 32 33  0  0  0  0  0  0  0  0999 V2000
    1.6502  -52.3289   19.4275 C   0  0  0  0  0  0  0  0  0  0  0  0
    1.3915  -53.4857   20.3467 C   0  0  0  0  0  0  0  0  0  0  0  0
    0.5622  -53.2916   21.5814 C   0  0  0  0  0  0  0  0  0  0  0  0
   -0.0085  -51.9408   21.8969 C   0  0  0  0  0  0  0  0  0  0  0  0
    0.2501  -50.7841   20.9777 C   0  0  0  0  0  0  0  0  0  0  0  0
    1.0795  -50.9781   19.7430 C   0  0  0  0  0  0  0  0  0  0  0  0
    2.8538  -52.1397   15.6506 C   0  0  0  0  0  0  0  0  0  0  0  0
    2.0245  -51.9457   16.8853 C   0  0  0  0  0  0  0  0  0  0  0  0
    0.7400  -51.1743   16.8124 O   0  0  0  0  0  0  0  0  0  0  0  0
    2.4795  -52.5230   18.1928 N   0  0  0  0  0  0  0  0  0  0  0  0
   -0.8379  -51.7468   23.1317 N   0  0  0  0  0  0  0  0  0  0  0  0
   -0.1735  -51.6394   24.4722 C   0  0  0  0  0  0  0  0  0  0  0  0
    1.2920  -51.3320   24.5605 C   0  0  0  0  0  0  0  0  0  0  0  0
    1.9564  -51.2247   25.9011 C   0  0  0  0  0  0  0  0  0  0  0  0
    1.1552  -51.4247   27.1533 C   0  0  0  0  0  0  0  0  0  0  0  0
    1.8196  -51.3174   28.4939 F   0  0  0  0  0  0  0  0  0  0  0  0
   -0.3103  -51.7322   27.0650 C   0  0  0  0  0  0  0  0  0  0  0  0
   -0.9746  -51.8395   25.7245 C   0  0  0  0  0  0  0  0  0  0  0  0
   -2.4401  -52.1469   25.6362 Cl  0  0  0  0  0  0  0  0  0  0  0  0
   -0.3206  -49.4332   21.2932 C   0  0  0  0  0  0  0  0  0  0  0  0
   -0.8912  -48.0824   21.6087 N   0  0  0  0  0  0  0  0  0  0  0  0
    1.7841  -54.4151   20.1296 H   0  0  0  0  0  0  0  0  0  0  0  0
    0.3843  -54.0875   22.2138 H   0  0  0  0  0  0  0  0  0  0  0  0
    1.2575  -50.1822   19.1106 H   0  0  0  0  0  0  0  0  0  0  0  0
    2.3756  -51.6621   14.8211 H   0  0  0  0  0  0  0  0  0  0  0  0
    2.9554  -53.1858   15.4499 H   0  0  0  0  0  0  0  0  0  0  0  0
    3.8221  -51.7096   15.8001 H   0  0  0  0  0  0  0  0  0  0  0  0
    3.3225  -53.0293   18.2406 H   0  0  0  0  0  0  0  0  0  0  0  0
   -1.8183  -51.6900   23.0623 H   0  0  0  0  0  0  0  0  0  0  0  0
    1.8432  -51.1943   23.6989 H   0  0  0  0  0  0  0  0  0  0  0  0
    2.9647  -51.0133   25.9619 H   0  0  0  0  0  0  0  0  0  0  0  0
   -0.8615  -51.8699   27.9265 H   0  0  0  0  0  0  0  0  0  0  0  0
  1  2  2  0  0  0  0
  2  3  1  0  0  0  0
  2 22  1  0  0  0  0
  3  4  2  0  0  0  0
  3 23  1  0  0  0  0
  4 11  1  0  0  0  0
  4  5  1  0  0  0  0
  5 20  1  0  0  0  0
  5  6  2  0  0  0  0
  6  1  1  0  0  0  0
  6 24  1  0  0  0  0
  7  8  1  0  0  0  0
  7 25  1  0  0  0  0
  7 26  1  0  0  0  0
  7 27  1  0  0  0  0
  8  9  2  0  0  0  0
  8 10  1  0  0  0  0
 10  1  1  0  0  0  0
 10 28  1  0  0  0  0
 11 12  1  0  0  0  0
 11 29  1  0  0  0  0
 12 13  2  0  0  0  0
 13 14  1  0  0  0  0
 13 30  1  0  0  0  0
 14 15  2  0  0  0  0
 14 31  1  0  0  0  0
 15 16  1  0  0  0  0
 15 17  1  0  0  0  0
 17 18  2  0  0  0  0
 17 32  1  0  0  0  0
 18 19  1  0  0  0  0
 18 12  1  0  0  0  0
 20 21  3  0  0  0  0
M  END
$$$$
