4zau_YY3
  PyMOL2.4          3D                             0

 37 40  0  0  0  0  0  0  0  0999 V2000
   -1.1890  -49.3830   16.2610 N   0  0  0  0  0  0  0  0  0  0  0  0
   -2.2740  -50.7450   17.6610 O   0  0  0  0  0  0  0  0  0  0  0  0
   -0.0870  -50.1800   16.1140 C   0  0  0  0  0  0  0  0  0  0  0  0
    0.2540  -49.4220   13.8270 N   0  0  0  0  0  0  0  0  0  0  0  0
    3.3840  -52.5630   15.7970 O   0  0  0  0  0  0  0  0  0  0  0  0
    0.6890  -50.2020   14.9230 C   0  0  0  0  0  0  0  0  0  0  0  0
   -2.4360  -49.0430   12.0780 N   0  0  0  0  0  0  0  0  0  0  0  0
    1.8270  -50.9880   14.7920 C   0  0  0  0  0  0  0  0  0  0  0  0
    2.0390  -52.5820   18.1300 N   0  0  0  0  0  0  0  0  0  0  0  0
    2.2570  -51.7560   15.8830 C   0  0  0  0  0  0  0  0  0  0  0  0
    2.1650  -53.6150   20.2090 N   0  0  0  0  0  0  0  0  0  0  0  0
    1.5390  -51.7450   17.1020 C   0  0  0  0  0  0  0  0  0  0  0  0
    0.9690  -51.6510   20.0690 N   0  0  0  0  0  0  0  0  0  0  0  0
    0.3770  -50.9640   17.2040 C   0  0  0  0  0  0  0  0  0  0  0  0
   -1.3740  -49.5080   23.4040 N   0  0  0  0  0  0  0  0  0  0  0  0
   -2.2310  -49.6780   17.0600 C   0  0  0  0  0  0  0  0  0  0  0  0
   -3.3970  -48.6770   17.2180 C   0  0  0  0  0  0  0  0  0  0  0  0
   -4.5960  -48.9250   18.0680 C   0  0  0  0  0  0  0  0  0  0  0  0
   -0.3450  -50.2720   12.7500 C   0  0  0  0  0  0  0  0  0  0  0  0
   -1.8790  -50.1420   12.9170 C   0  0  0  0  0  0  0  0  0  0  0  0
   -3.1940  -48.2140   13.0480 C   0  0  0  0  0  0  0  0  0  0  0  0
   -3.2190  -49.7970   11.0900 C   0  0  0  0  0  0  0  0  0  0  0  0
    4.2560  -52.2140   14.7430 C   0  0  0  0  0  0  0  0  0  0  0  0
    1.6980  -52.5930   19.4850 C   0  0  0  0  0  0  0  0  0  0  0  0
    1.8870  -53.7180   21.5680 C   0  0  0  0  0  0  0  0  0  0  0  0
    1.1370  -52.7430   22.1890 C   0  0  0  0  0  0  0  0  0  0  0  0
    0.6750  -51.6860   21.3960 C   0  0  0  0  0  0  0  0  0  0  0  0
   -0.1460  -50.6020   22.0120 C   0  0  0  0  0  0  0  0  0  0  0  0
   -0.7510  -50.6610   23.2050 C   0  0  0  0  0  0  0  0  0  0  0  0
   -1.1720  -48.7260   22.3530 C   0  0  0  0  0  0  0  0  0  0  0  0
   -1.6160  -47.4370   22.0710 C   0  0  0  0  0  0  0  0  0  0  0  0
   -1.2660  -46.8340   20.8660 C   0  0  0  0  0  0  0  0  0  0  0  0
   -0.4670  -47.5300   19.9650 C   0  0  0  0  0  0  0  0  0  0  0  0
   -0.0560  -48.8180   20.3070 C   0  0  0  0  0  0  0  0  0  0  0  0
   -0.4110  -49.3940   21.4760 C   0  0  0  0  0  0  0  0  0  0  0  0
   -2.1580  -49.1370   24.5860 C   0  0  0  0  0  0  0  0  0  0  0  0
    1.2860  -48.4860   13.3050 C   0  0  0  0  0  0  0  0  0  0  0  0
  1  3  1  0  0  0  0
  3  6  1  0  0  0  0
  4  6  1  0  0  0  0
  6  8  2  0  0  0  0
  5 10  1  0  0  0  0
  8 10  1  0  0  0  0
  9 12  1  0  0  0  0
 10 12  2  0  0  0  0
  3 14  2  0  0  0  0
 12 14  1  0  0  0  0
  1 16  1  0  0  0  0
  2 16  2  0  0  0  0
 16 17  1  0  0  0  0
 17 18  2  0  0  0  0
  4 19  1  0  0  0  0
  7 20  1  0  0  0  0
 19 20  1  0  0  0  0
  7 21  1  0  0  0  0
  7 22  1  0  0  0  0
  5 23  1  0  0  0  0
  9 24  1  0  0  0  0
 11 24  1  0  0  0  0
 13 24  2  0  0  0  0
 11 25  2  0  0  0  0
 25 26  1  0  0  0  0
 13 27  1  0  0  0  0
 26 27  2  0  0  0  0
 27 28  1  0  0  0  0
 15 29  1  0  0  0  0
 28 29  2  0  0  0  0
 15 30  1  0  0  0  0
 30 31  1  0  0  0  0
 31 32  2  0  0  0  0
 32 33  1  0  0  0  0
 33 34  2  0  0  0  0
 28 35  1  0  0  0  0
 30 35  2  0  0  0  0
 34 35  1  0  0  0  0
 15 36  1  0  0  0  0
  4 37  1  0  0  0  0
M  END
$$$$
