
     RDKit          3D

 21 23  0  0  0  0  0  0  0  0999 V2000
    0.8112  -51.8210   22.5051 C   0  0  0  0  0  0  0  0  0  0  0  0
    0.8538  -51.2688   21.1110 C   0  0  0  0  0  0  0  0  0  0  0  0
    1.2471  -52.1537   19.9655 C   0  0  0  0  0  0  0  0  0  0  0  0
    1.5978  -53.5909   20.2141 N   0  0  0  0  0  0  0  0  0  0  0  0
    1.5551  -54.1430   21.6081 C   0  0  0  0  0  0  0  0  0  0  0  0
    1.1618  -53.2581   22.7536 N   0  0  0  0  0  0  0  0  0  0  0  0
    1.2898  -51.6016   18.5715 N   0  0  0  0  0  0  0  0  0  0  0  0
    2.0892  -52.3006   17.5122 C   0  0  0  0  0  0  0  0  0  0  0  0
    2.1319  -51.7484   16.1181 C   0  0  0  0  0  0  0  0  0  0  0  0
    1.3752  -50.4973   15.7835 O   0  0  0  0  0  0  0  0  0  0  0  0
    0.5757  -49.7983   16.8429 C   0  0  0  0  0  0  0  0  0  0  0  0
    0.5330  -50.3505   18.2369 C   0  0  0  0  0  0  0  0  0  0  0  0
    0.4179  -50.9361   23.6506 N   0  0  0  0  0  0  0  0  0  0  0  0
   -1.6837  -52.3781   25.2330 F   0  0  0  0  0  0  0  0  0  0  0  0
   -0.3490  -52.0843   25.8514 C   0  0  0  0  0  0  0  0  0  0  0  0
   -0.0651  -52.5115   27.2609 C   0  0  0  0  0  0  0  0  0  0  0  0
   -1.1159  -53.2326   28.0522 Cl  0  0  0  0  0  0  0  0  0  0  0  0
    1.2695  -52.2178   27.8793 C   0  0  0  0  0  0  0  0  0  0  0  0
    2.3203  -51.4968   27.0881 C   0  0  0  0  0  0  0  0  0  0  0  0
    2.0364  -51.0695   25.6786 C   0  0  0  0  0  0  0  0  0  0  0  0
    0.7018  -51.3633   25.0602 C   0  0  0  0  0  0  0  0  0  0  0  0
  1  2  2  0
  2  3  1  0
  3  7  1  0
  3  4  2  0
  4  5  1  0
  5  6  2  0
  6  1  1  0
  7  8  1  0
  8  9  1  0
  9 10  1  0
 10 11  1  0
 11 12  1  0
 12  7  1  0
 13  1  1  0
 14 15  1  0
 15 16  2  0
 16 17  1  0
 16 18  1  0
 18 19  2  0
 19 20  1  0
 20 21  2  0
 21 13  1  0
 21 15  1  0
M  END
$$$$

     RDKit          3D

 27 30  0  0  0  0  0  0  0  0999 V2000
    1.5648  -51.4825   18.8357 C   0  0  0  0  0  0  0  0  0  0  0  0
    2.5500  -52.4547   18.2576 C   0  0  0  0  0  0  0  0  0  0  0  0
    2.7223  -52.5533   16.7709 C   0  0  0  0  0  0  0  0  0  0  0  0
    1.9092  -51.6797   15.8621 N   0  0  0  0  0  0  0  0  0  0  0  0
    0.9240  -50.7076   16.4401 C   0  0  0  0  0  0  0  0  0  0  0  0
    0.7517  -50.6090   17.9269 C   0  0  0  0  0  0  0  0  0  0  0  0
    0.2486  -54.8720   26.9273 C   0  0  0  0  0  0  0  0  0  0  0  0
    0.4478  -53.4856   26.3906 N   0  0  0  0  0  0  0  0  0  0  0  0
    0.4708  -52.2221   27.1989 C   0  0  0  0  0  0  0  0  0  0  0  0
    0.6963  -51.0748   26.2593 C   0  0  0  0  0  0  0  0  0  0  0  0
    0.8127  -51.6291   24.8704 C   0  0  0  0  0  0  0  0  0  0  0  0
    1.0240  -51.2626   23.4313 C   0  0  0  0  0  0  0  0  0  0  0  0
    1.0010  -52.5260   22.6229 N   0  0  0  0  0  0  0  0  0  0  0  0
    1.1733  -52.6247   21.1362 C   0  0  0  0  0  0  0  0  0  0  0  0
    1.1265  -53.9645   20.4630 O   0  0  0  0  0  0  0  0  0  0  0  0
    1.3924  -51.3838   20.3225 N   0  0  0  0  0  0  0  0  0  0  0  0
    0.7756  -53.6733   23.5626 C   0  0  0  0  0  0  0  0  0  0  0  0
    0.6591  -53.1190   24.9515 C   0  0  0  0  0  0  0  0  0  0  0  0
    0.1110  -49.8340   15.5313 O   0  0  0  0  0  0  0  0  0  0  0  0
   -1.3626  -50.0721   15.3827 C   0  0  0  0  0  0  0  0  0  0  0  0
   -2.3123  -49.5738   16.4314 C   0  0  0  0  0  0  0  0  0  0  0  0
   -3.7858  -49.8119   16.2829 C   0  0  0  0  0  0  0  0  0  0  0  0
   -4.3096  -50.5483   15.0856 N   0  0  0  0  0  0  0  0  0  0  0  0
   -3.3598  -51.0467   14.0369 C   0  0  0  0  0  0  0  0  0  0  0  0
   -1.8863  -50.8086   14.1855 C   0  0  0  0  0  0  0  0  0  0  0  0
   -3.8836  -51.7831   12.8398 C   0  0  0  0  0  0  0  0  0  0  0  0
   -4.4075  -52.5194   11.6426 N   0  0  0  0  0  0  0  0  0  0  0  0
  1  2  2  0
  2  3  1  0
  3  4  2  0
  4  5  1  0
  5 19  1  0
  5  6  2  0
  6  1  1  0
  7  8  1  0
  8  9  1  0
  9 10  1  0
 11 10  1  0
 11 12  1  0
 12 13  1  0
 13 14  1  0
 13 17  1  0
 14 15  2  0
 14 16  1  0
 16  1  1  0
 18 17  1  0
 18  8  1  0
 18 11  1  0
 19 20  1  0
 20 21  2  0
 21 22  1  0
 22 23  2  0
 23 24  1  0
 24 26  1  0
 24 25  2  0
 25 20  1  0
 26 27  3  0
M  CHG  1   8   1
M  END
$$$$

     RDKit          3D

 22 24  0  0  0  0  0  0  0  0999 V2000
    0.9187  -51.2529   17.8723 C   0  0  0  0  0  0  0  0  0  0  0  0
    0.5042  -49.8252   18.0724 C   0  0  0  0  0  0  0  0  0  0  0  0
    0.3195  -49.5981   19.5436 C   0  0  0  0  0  0  0  0  0  0  0  0
   -0.0930  -48.3099   20.1919 N   0  0  0  0  0  0  0  0  0  0  0  0
    0.6198  -50.8854   20.2527 C   0  0  0  0  0  0  0  0  0  0  0  0
    0.6039  -51.2584   21.7054 C   0  0  0  0  0  0  0  0  0  0  0  0
    0.9583  -52.6541   22.1253 C   0  0  0  0  0  0  0  0  0  0  0  0
    1.3286  -53.6768   21.0924 C   0  0  0  0  0  0  0  0  0  0  0  0
    1.3445  -53.3038   19.6396 C   0  0  0  0  0  0  0  0  0  0  0  0
    0.9901  -51.9081   19.2198 C   0  0  0  0  0  0  0  0  0  0  0  0
    2.6252  -52.2342   16.1767 C   0  0  0  0  0  0  0  0  0  0  0  0
    1.2105  -51.9100   16.5559 O   0  0  0  0  0  0  0  0  0  0  0  0
    0.9424  -53.0272   23.5781 N   0  0  0  0  0  0  0  0  0  0  0  0
    0.0127  -52.3247   24.5227 C   0  0  0  0  0  0  0  0  0  0  0  0
   -1.4532  -52.6425   24.5073 C   0  0  0  0  0  0  0  0  0  0  0  0
   -2.3829  -51.9400   25.4518 C   0  0  0  0  0  0  0  0  0  0  0  0
   -1.8466  -50.9197   26.4118 C   0  0  0  0  0  0  0  0  0  0  0  0
   -0.3808  -50.6019   26.4272 C   0  0  0  0  0  0  0  0  0  0  0  0
    0.5489  -51.3044   25.4826 C   0  0  0  0  0  0  0  0  0  0  0  0
    2.0148  -50.9866   25.4981 Cl  0  0  0  0  0  0  0  0  0  0  0  0
   -2.7763  -50.2172   27.3564 C   0  0  0  0  0  0  0  0  0  0  0  0
   -3.7060  -49.5147   28.3010 N   0  0  0  0  0  0  0  0  0  0  0  0
  1 12  1  0
  1  2  1  0
  2  3  1  0
  3  4  1  0
  3  5  1  0
  5  6  2  0
  6  7  1  0
  7 13  1  0
  7  8  2  0
  8  9  1  0
  9 10  2  0
 10  1  1  0
 10  5  1  0
 11 12  1  0
 13 14  1  0
 14 15  2  0
 15 16  1  0
 16 17  2  0
 17 21  1  0
 17 18  1  0
 18 19  2  0
 19 20  1  0
 19 14  1  0
 21 22  3  0
M  CHG  1   4   1
M  END
$$$$

     RDKit          3D

 21 23  0  0  0  0  0  0  0  0999 V2000
   -0.7787  -51.1787   23.6350 C   0  0  0  0  0  0  0  0  0  0  0  0
    0.5825  -50.9207   24.2099 C   0  0  0  0  0  0  0  0  0  0  0  0
    0.9147  -51.3957   25.5934 C   0  0  0  0  0  0  0  0  0  0  0  0
   -0.1144  -52.1286   26.4020 C   0  0  0  0  0  0  0  0  0  0  0  0
   -1.4757  -52.3866   25.8270 C   0  0  0  0  0  0  0  0  0  0  0  0
   -1.8078  -51.9117   24.4435 C   0  0  0  0  0  0  0  0  0  0  0  0
   -3.1690  -52.1696   23.8686 Cl  0  0  0  0  0  0  0  0  0  0  0  0
    0.2177  -52.6036   27.7854 O   0  0  0  0  0  0  0  0  0  0  0  0
    1.5789  -52.3456   28.3603 C   0  0  0  0  0  0  0  0  0  0  0  0
    2.6080  -51.6127   27.5518 C   0  0  0  0  0  0  0  0  0  0  0  0
    2.2759  -51.1377   26.1683 C   0  0  0  0  0  0  0  0  0  0  0  0
    3.3049  -50.4047   25.3597 O   0  0  0  0  0  0  0  0  0  0  0  0
   -1.1109  -50.7037   22.2514 N   0  0  0  0  0  0  0  0  0  0  0  0
    1.4781  -51.9132   18.7752 C   0  0  0  0  0  0  0  0  0  0  0  0
    1.3113  -52.8387   19.9438 C   0  0  0  0  0  0  0  0  0  0  0  0
    0.4483  -52.4355   21.1026 C   0  0  0  0  0  0  0  0  0  0  0  0
   -0.2479  -51.1069   21.0927 C   0  0  0  0  0  0  0  0  0  0  0  0
   -0.0811  -50.1814   19.9241 N   0  0  0  0  0  0  0  0  0  0  0  0
    0.7819  -50.5846   18.7653 C   0  0  0  0  0  0  0  0  0  0  0  0
    3.2041  -52.7195   16.4577 N   0  0  0  0  0  0  0  0  0  0  0  0
    2.3411  -52.3163   17.6164 C   0  0  0  0  0  0  0  0  0  0  0  0
  1  2  2  0
  2  3  1  0
  3  4  2  0
  4  5  1  0
  4  8  1  0
  5  6  2  0
  6  7  1  0
  6  1  1  0
  8  9  1  0
  9 10  1  0
 10 11  1  0
 11 12  1  0
 11  3  1  0
 13  1  1  0
 14 15  2  0
 15 16  1  0
 16 17  2  0
 17 13  1  0
 17 18  1  0
 18 19  2  0
 19 14  1  0
 20 21  3  0
 21 14  1  0
M  END
$$$$

     RDKit          3D

 21 23  0  0  0  0  0  0  0  0999 V2000
   -0.4267  -51.2886   23.4421 C   0  0  0  0  0  0  0  0  0  0  0  0
    0.8687  -51.0739   24.1672 C   0  0  0  0  0  0  0  0  0  0  0  0
    0.9989  -51.4782   25.6059 C   0  0  0  0  0  0  0  0  0  0  0  0
   -0.1663  -52.0972   26.3194 C   0  0  0  0  0  0  0  0  0  0  0  0
   -1.4617  -52.3120   25.5941 C   0  0  0  0  0  0  0  0  0  0  0  0
   -1.5919  -51.9077   24.1556 C   0  0  0  0  0  0  0  0  0  0  0  0
   -2.8873  -52.1225   23.4304 Cl  0  0  0  0  0  0  0  0  0  0  0  0
   -0.0362  -52.5015   27.7579 O   0  0  0  0  0  0  0  0  0  0  0  0
    1.2592  -52.2868   28.4831 C   0  0  0  0  0  0  0  0  0  0  0  0
    2.4244  -51.6677   27.7696 C   0  0  0  0  0  0  0  0  0  0  0  0
    2.2943  -51.2634   26.3310 C   0  0  0  0  0  0  0  0  0  0  0  0
    3.4595  -50.6443   25.6176 O   0  0  0  0  0  0  0  0  0  0  0  0
   -0.5569  -50.8843   22.0034 N   0  0  0  0  0  0  0  0  0  0  0  0
    1.1725  -51.6670   18.5183 C   0  0  0  0  0  0  0  0  0  0  0  0
    1.9696  -52.8893   18.8654 C   0  0  0  0  0  0  0  0  0  0  0  0
    1.9245  -53.4434   20.2587 N   0  0  0  0  0  0  0  0  0  0  0  0
    1.0824  -52.7750   21.3047 C   0  0  0  0  0  0  0  0  0  0  0  0
    0.2853  -51.5527   20.9574 C   0  0  0  0  0  0  0  0  0  0  0  0
    0.3304  -50.9987   19.5643 C   0  0  0  0  0  0  0  0  0  0  0  0
    1.2627  -50.5589   15.7318 N   0  0  0  0  0  0  0  0  0  0  0  0
    1.2176  -51.1130   17.1251 C   0  0  0  0  0  0  0  0  0  0  0  0
  1  2  2  0
  2  3  1  0
  3  4  2  0
  4  5  1  0
  4  8  1  0
  5  6  2  0
  6  7  1  0
  6  1  1  0
  8  9  1  0
  9 10  1  0
 10 11  1  0
 11 12  1  0
 11  3  1  0
 13  1  1  0
 14 15  2  0
 15 16  1  0
 16 17  2  0
 17 18  1  0
 18 13  1  0
 18 19  2  0
 19 14  1  0
 20 21  3  0
 21 14  1  0
M  END
$$$$

     RDKit          3D

 23 26  0  0  0  0  0  0  0  0999 V2000
    0.7612  -50.5297   17.9357 C   0  0  0  0  0  0  0  0  0  0  0  0
    1.3085  -51.9260   17.9105 C   0  0  0  0  0  0  0  0  0  0  0  0
    1.4277  -52.7080   19.1849 C   0  0  0  0  0  0  0  0  0  0  0  0
    0.9997  -52.0936   20.4847 C   0  0  0  0  0  0  0  0  0  0  0  0
    0.4524  -50.6972   20.5100 C   0  0  0  0  0  0  0  0  0  0  0  0
    0.3331  -49.9153   19.2354 C   0  0  0  0  0  0  0  0  0  0  0  0
    0.0244  -50.0829   21.8096 O   0  0  0  0  0  0  0  0  0  0  0  0
    0.1436  -50.8648   23.0842 C   0  0  0  0  0  0  0  0  0  0  0  0
    0.6909  -52.2612   23.0589 C   0  0  0  0  0  0  0  0  0  0  0  0
    0.9246  -53.2674   24.1465 C   0  0  0  0  0  0  0  0  0  0  0  0
    1.4971  -54.5036   23.5189 N   0  0  0  0  0  0  0  0  0  0  0  0
    1.6172  -54.2615   22.0435 C   0  0  0  0  0  0  0  0  0  0  0  0
    1.1189  -52.8755   21.7592 C   0  0  0  0  0  0  0  0  0  0  0  0
    0.6419  -49.7477   16.6612 N   0  0  0  0  0  0  0  0  0  0  0  0
   -2.3240  -51.0053   13.5193 C   0  0  0  0  0  0  0  0  0  0  0  0
   -2.7971  -50.3119   14.7624 C   0  0  0  0  0  0  0  0  0  0  0  0
   -1.8084  -49.8927   15.8098 C   0  0  0  0  0  0  0  0  0  0  0  0
   -0.3468  -50.1669   15.6139 C   0  0  0  0  0  0  0  0  0  0  0  0
    0.1262  -50.8603   14.3708 C   0  0  0  0  0  0  0  0  0  0  0  0
   -0.8625  -51.2795   13.3235 C   0  0  0  0  0  0  0  0  0  0  0  0
   -0.3894  -51.9730   12.0803 Cl  0  0  0  0  0  0  0  0  0  0  0  0
   -4.3014  -51.8437   11.4247 N   0  0  0  0  0  0  0  0  0  0  0  0
   -3.3128  -51.4245   12.4720 C   0  0  0  0  0  0  0  0  0  0  0  0
  1  2  2  0
  2  3  1  0
  3  4  2  0
  4  5  1  0
  5  6  2  0
  5  7  1  0
  6  1  1  0
  7  8  1  0
  9  8  1  0
  9 10  1  0
 10 11  1  0
 11 12  1  0
 13 12  1  0
 13  9  1  0
 13  4  1  0
 14  1  1  0
 15 16  2  0
 16 17  1  0
 17 18  2  0
 18 14  1  0
 18 19  1  0
 19 20  2  0
 20 21  1  0
 20 15  1  0
 22 23  3  0
 23 15  1  0
M  CHG  1  11   1
M  END
$$$$

     RDKit          3D

 22 24  0  0  0  0  0  0  0  0999 V2000
    0.2936  -51.2093   25.4068 C   0  0  0  0  0  0  0  0  0  0  0  0
   -0.6079  -50.2397   26.1120 C   0  0  0  0  0  0  0  0  0  0  0  0
   -2.0359  -50.0912   25.6777 C   0  0  0  0  0  0  0  0  0  0  0  0
   -2.5625  -50.9124   24.5382 C   0  0  0  0  0  0  0  0  0  0  0  0
   -1.6611  -51.8819   23.8330 C   0  0  0  0  0  0  0  0  0  0  0  0
   -0.2330  -52.0304   24.2674 C   0  0  0  0  0  0  0  0  0  0  0  0
   -4.0044  -50.5522   24.3348 O   0  0  0  0  0  0  0  0  0  0  0  0
   -4.3689  -49.5085   25.3486 C   0  0  0  0  0  0  0  0  0  0  0  0
   -3.1523  -49.2236   26.1786 C   0  0  0  0  0  0  0  0  0  0  0  0
   -3.0671  -48.2432   27.3106 N   0  0  0  0  0  0  0  0  0  0  0  0
    3.1497  -51.5062   26.2756 N   0  0  0  0  0  0  0  0  0  0  0  0
    1.7217  -51.3577   25.8412 C   0  0  0  0  0  0  0  0  0  0  0  0
    0.6685  -53.0000   23.5622 N   0  0  0  0  0  0  0  0  0  0  0  0
    1.0098  -52.7915   22.1165 C   0  0  0  0  0  0  0  0  0  0  0  0
    1.6852  -53.8830   21.3403 C   0  0  0  0  0  0  0  0  0  0  0  0
    2.0265  -53.6745   19.8946 N   0  0  0  0  0  0  0  0  0  0  0  0
    1.6924  -52.3745   19.2250 C   0  0  0  0  0  0  0  0  0  0  0  0
    1.0170  -51.2830   20.0012 C   0  0  0  0  0  0  0  0  0  0  0  0
    0.6828  -49.9829   19.3317 Cl  0  0  0  0  0  0  0  0  0  0  0  0
    0.6757  -51.4915   21.4469 C   0  0  0  0  0  0  0  0  0  0  0  0
    2.0337  -52.1659   17.7793 C   0  0  0  0  0  0  0  0  0  0  0  0
    2.3749  -51.9572   16.3337 N   0  0  0  0  0  0  0  0  0  0  0  0
  1  2  2  0
  2  3  1  0
  3  4  2  0
  4  5  1  0
  4  7  1  0
  5  6  2  0
  6 13  1  0
  6  1  1  0
  7  8  1  0
  8  9  1  0
  9 10  1  0
  9  3  1  0
 11 12  3  0
 12  1  1  0
 13 14  1  0
 14 15  2  0
 15 16  1  0
 16 17  2  0
 17 21  1  0
 17 18  1  0
 18 19  1  0
 18 20  2  0
 20 14  1  0
 21 22  3  0
M  CHG  1  10   1
M  END
$$$$

     RDKit          3D

 22 24  0  0  0  0  0  0  0  0999 V2000
   -0.9746  -50.6606   23.1804 C   0  0  0  0  0  0  0  0  0  0  0  0
   -0.1264  -51.6067   22.3833 N   0  0  0  0  0  0  0  0  0  0  0  0
    0.5262  -51.1422   21.1151 C   0  0  0  0  0  0  0  0  0  0  0  0
    0.3307  -49.7316   20.6440 N   0  0  0  0  0  0  0  0  0  0  0  0
   -0.5175  -48.7854   21.4412 C   0  0  0  0  0  0  0  0  0  0  0  0
   -0.7129  -47.3748   20.9701 C   0  0  0  0  0  0  0  0  0  0  0  0
   -1.5611  -46.4287   21.7673 C   0  0  0  0  0  0  0  0  0  0  0  0
   -2.2137  -46.8932   23.0355 C   0  0  0  0  0  0  0  0  0  0  0  0
   -2.0182  -48.3038   23.5065 C   0  0  0  0  0  0  0  0  0  0  0  0
   -1.1701  -49.2499   22.7094 C   0  0  0  0  0  0  0  0  0  0  0  0
   -1.6272  -51.1250   24.4486 N   0  0  0  0  0  0  0  0  0  0  0  0
   -3.0053  -51.7163   24.4100 C   0  0  0  0  0  0  0  0  0  0  0  0
   -3.6579  -52.1808   25.6782 N   0  0  0  0  0  0  0  0  0  0  0  0
   -3.7306  -51.8431   23.1032 O   0  0  0  0  0  0  0  0  0  0  0  0
   -0.9018  -50.9983   25.7554 C   0  0  0  0  0  0  0  0  0  0  0  0
    0.1102  -52.0309   26.1547 C   0  0  0  0  0  0  0  0  0  0  0  0
    2.4721  -51.0331   25.7356 C   0  0  0  0  0  0  0  0  0  0  0  0
    1.4514  -51.6051   26.6742 N   0  0  0  0  0  0  0  0  0  0  0  0
    1.7718  -51.7511   28.1323 C   0  0  0  0  0  0  0  0  0  0  0  0
    1.3744  -52.0884   20.3179 C   0  0  0  0  0  0  0  0  0  0  0  0
    1.9311  -52.5382   18.9997 C   0  0  0  0  0  0  0  0  0  0  0  0
    2.2866  -53.2775   20.2555 C   0  0  0  0  0  0  0  0  0  0  0  0
  1  2  2  0
  2  3  1  0
  3 20  1  0
  3  4  2  0
  4  5  1  0
  5  6  2  0
  6  7  1  0
  7  8  2  0
  8  9  1  0
  9 10  2  0
 10  1  1  0
 10  5  1  0
 11 12  1  0
 11  1  1  0
 12 13  1  0
 12 14  2  0
 15 11  1  0
 16 15  1  0
 17 18  1  0
 18 19  1  0
 18 16  1  0
 20 21  1  0
 21 22  1  0
 22 20  1  0
M  CHG  1  18   1
M  END
$$$$

     RDKit          3D

 27 30  0  0  0  0  0  0  0  0999 V2000
   -2.2491  -48.8550   22.4154 C   0  0  2  0  0  0  0  0  0  0  0  0
   -1.9247  -47.4685   21.9440 C   0  0  0  0  0  0  0  0  0  0  0  0
   -0.7928  -47.2480   20.9848 C   0  0  0  0  0  0  0  0  0  0  0  0
    0.0147  -48.4141   20.4969 C   0  0  0  0  0  0  0  0  0  0  0  0
   -0.3097  -49.8007   20.9682 N   0  0  0  0  0  0  0  0  0  0  0  0
   -1.4416  -50.0212   21.9275 C   0  0  0  0  0  0  0  0  0  0  0  0
    0.4978  -50.9668   20.4802 C   0  0  0  0  0  0  0  0  0  0  0  0
    1.0062  -50.9890   19.0691 N   0  0  0  0  0  0  0  0  0  0  0  0
    1.8137  -52.1550   18.5811 C   0  0  0  0  0  0  0  0  0  0  0  0
    2.1130  -53.2989   19.5041 N   0  0  0  0  0  0  0  0  0  0  0  0
    1.6046  -53.2767   20.9152 C   0  0  0  0  0  0  0  0  0  0  0  0
    0.7971  -52.1107   21.4032 C   0  0  0  0  0  0  0  0  0  0  0  0
    0.4327  -52.3663   22.8357 C   0  0  0  0  0  0  0  0  0  0  0  0
    1.0150  -53.6903   23.2329 C   0  0  0  0  0  0  0  0  0  0  0  0
    1.7393  -54.2530   22.0460 C   0  0  0  0  0  0  0  0  0  0  0  0
    2.3221  -52.1772   17.1700 C   0  0  0  0  0  0  0  0  0  0  0  0
    3.4158  -52.4757   16.1878 C   0  0  0  0  0  0  0  0  0  0  0  0
    2.1089  -51.9172   15.7082 C   0  0  0  0  0  0  0  0  0  0  0  0
   -4.6989  -49.5884   22.8746 C   0  0  0  0  0  0  0  0  0  0  0  0
   -3.3810  -49.0754   23.3747 N   0  0  0  0  0  0  0  0  0  0  0  0
   -3.1950  -48.7829   24.8340 C   0  0  0  0  0  0  0  0  0  0  0  0
   -1.8771  -48.2700   25.3342 O   0  0  0  0  0  0  0  0  0  0  0  0
   -4.3269  -49.0033   25.7935 N   0  0  0  0  0  0  0  0  0  0  0  0
   -4.1409  -48.7108   27.2528 C   0  0  0  0  0  0  0  0  0  0  0  0
   -3.5161  -50.0610   27.4439 C   0  0  0  0  0  0  0  0  0  0  0  0
   -4.7657  -47.3605   27.0617 C   0  0  0  0  0  0  0  0  0  0  0  0
   -3.9549  -48.4182   28.7122 C   0  0  0  0  0  0  0  0  0  0  0  0
  1 20  1  6
  1  2  1  0
  2  3  1  0
  3  4  1  0
  4  5  1  0
  5  7  1  0
  5  6  1  0
  6  1  1  0
  7  8  2  0
  8  9  1  0
  9 16  1  0
  9 10  2  0
 10 11  1  0
 11 12  2  0
 12 13  1  0
 12  7  1  0
 13 14  1  0
 14 15  1  0
 15 11  1  0
 16 17  1  0
 17 18  1  0
 18 16  1  0
 19 20  1  0
 20 21  1  0
 21 22  2  0
 21 23  1  0
 23 24  1  0
 24 25  1  0
 24 26  1  0
 24 27  1  0
M  END
$$$$

     RDKit          3D

 19 21  0  0  0  0  0  0  0  0999 V2000
    1.5049  -53.7896   21.3182 N   0  0  0  0  0  0  0  0  0  0  0  0
    1.1380  -53.2404   22.6650 C   0  0  0  0  0  0  0  0  0  0  0  0
    1.1417  -51.7585   22.8971 C   0  0  0  0  0  0  0  0  0  0  0  0
    0.7748  -51.2092   24.2438 C   0  0  0  0  0  0  0  0  0  0  0  0
    0.4043  -52.1420   25.3586 C   0  0  0  0  0  0  0  0  0  0  0  0
    0.4006  -53.6239   25.1266 C   0  0  0  0  0  0  0  0  0  0  0  0
    0.7675  -54.1731   23.7798 C   0  0  0  0  0  0  0  0  0  0  0  0
    0.0300  -54.5567   26.2413 O   0  0  0  0  0  0  0  0  0  0  0  0
   -0.3368  -54.0075   27.5880 C   0  0  0  0  0  0  0  0  0  0  0  0
   -0.3331  -52.5255   27.8201 C   0  0  0  0  0  0  0  0  0  0  0  0
    0.0374  -51.5928   26.7053 O   0  0  0  0  0  0  0  0  0  0  0  0
    2.0444  -52.1510   17.7442 C   0  0  0  0  0  0  0  0  0  0  0  0
    0.7944  -51.3316   17.6164 C   0  0  0  0  0  0  0  0  0  0  0  0
   -0.2188  -51.3317   18.7226 C   0  0  0  0  0  0  0  0  0  0  0  0
    0.0181  -52.1510   19.9565 C   0  0  0  0  0  0  0  0  0  0  0  0
    1.2680  -52.9703   20.0843 C   0  0  0  0  0  0  0  0  0  0  0  0
    2.2812  -52.9703   18.9782 C   0  0  0  0  0  0  0  0  0  0  0  0
    4.0706  -52.1510   15.5319 C   0  0  0  0  0  0  0  0  0  0  0  0
    3.0575  -52.1510   16.6381 C   0  0  0  0  0  0  0  0  0  0  0  0
  1  2  1  0
  2  3  2  0
  3  4  1  0
  4  5  2  0
  5  6  1  0
  6  7  2  0
  6  8  1  0
  7  2  1  0
  8  9  1  0
  9 10  1  0
 10 11  1  0
 11  5  1  0
 12 13  2  0
 13 14  1  0
 14 15  2  0
 15 16  1  0
 16  1  1  0
 16 17  2  0
 17 12  1  0
 18 19  3  0
 19 12  1  0
M  END
$$$$

     RDKit          3D

 26 28  0  0  0  0  0  0  0  0999 V2000
    1.8410  -52.5866   20.0563 C   0  0  0  0  0  0  0  0  0  0  0  0
    1.3450  -51.3274   20.7031 C   0  0  0  0  0  0  0  0  0  0  0  0
    0.6898  -51.3846   22.0512 C   0  0  0  0  0  0  0  0  0  0  0  0
    0.5306  -52.7010   22.7525 C   0  0  0  0  0  0  0  0  0  0  0  0
    1.0266  -53.9602   22.1056 N   0  0  0  0  0  0  0  0  0  0  0  0
    1.6818  -53.9030   20.7575 N   0  0  0  0  0  0  0  0  0  0  0  0
    0.2805  -50.7840   15.2018 C   0  0  0  0  0  0  0  0  0  0  0  0
    1.6743  -51.3086   15.0225 C   0  0  2  0  0  0  0  0  0  0  0  0
    2.3295  -51.2514   13.6744 C   0  0  0  0  0  0  0  0  0  0  0  0
    3.7233  -51.7759   13.4950 N   0  0  0  0  0  0  0  0  0  0  0  0
    4.3785  -51.7187   12.1469 C   0  0  0  0  0  0  0  0  0  0  0  0
    4.4618  -52.3577   14.6638 C   0  0  0  0  0  0  0  0  0  0  0  0
    3.8066  -52.4149   16.0118 C   0  0  0  0  0  0  0  0  0  0  0  0
    2.4128  -51.8904   16.1912 N   0  0  0  0  0  0  0  0  0  0  0  0
    1.7576  -51.9476   17.5394 C   0  0  0  0  0  0  0  0  0  0  0  0
    0.3638  -51.4230   17.7187 O   0  0  0  0  0  0  0  0  0  0  0  0
    2.4962  -52.5294   18.7081 N   0  0  0  0  0  0  0  0  0  0  0  0
   -0.1246  -52.7582   24.1006 O   0  0  0  0  0  0  0  0  0  0  0  0
   -1.0046  -51.6318   24.5553 C   0  0  0  0  0  0  0  0  0  0  0  0
   -0.4494  -50.5576   25.4430 C   0  0  0  0  0  0  0  0  0  0  0  0
    0.9858  -50.6100   25.8761 F   0  0  0  0  0  0  0  0  0  0  0  0
   -1.3294  -49.4312   25.8976 C   0  0  0  0  0  0  0  0  0  0  0  0
   -2.7646  -49.3788   25.4645 C   0  0  0  0  0  0  0  0  0  0  0  0
   -3.3197  -50.4529   24.5768 C   0  0  0  0  0  0  0  0  0  0  0  0
   -2.4397  -51.5794   24.1222 C   0  0  0  0  0  0  0  0  0  0  0  0
   -2.9948  -52.6535   23.2345 F   0  0  0  0  0  0  0  0  0  0  0  0
  1  2  2  0
  2  3  1  0
  3  4  2  0
  4 18  1  0
  4  5  1  0
  5  6  2  0
  6  1  1  0
  8  7  1  6
  8  9  1  0
  9 10  1  0
 10 11  1  0
 10 12  1  0
 12 13  1  0
 13 14  1  0
 14 15  1  0
 14  8  1  0
 15 16  2  0
 15 17  1  0
 17  1  1  0
 18 19  1  0
 19 20  2  0
 20 21  1  0
 20 22  1  0
 22 23  2  0
 23 24  1  0
 24 25  2  0
 25 26  1  0
 25 19  1  0
M  CHG  1  10   1
M  END
$$$$

     RDKit          3D

 24 26  0  0  0  0  0  0  0  0999 V2000
    0.4272  -51.0291   21.0977 C   0  0  2  0  0  0  0  0  0  0  0  0
   -0.2962  -49.8695   21.7156 C   0  0  0  0  0  0  0  0  0  0  0  0
   -0.6636  -48.6815   20.8767 C   0  0  0  0  0  0  0  0  0  0  0  0
   -1.3870  -47.5218   21.4947 C   0  0  0  0  0  0  0  0  0  0  0  0
   -0.3076  -48.6533   19.4199 C   0  0  0  0  0  0  0  0  0  0  0  0
    0.4158  -49.8129   18.8019 C   0  0  0  0  0  0  0  0  0  0  0  0
    0.7832  -51.0008   19.6408 N   0  0  0  0  0  0  0  0  0  0  0  0
    1.5066  -52.1605   19.0229 C   0  0  0  0  0  0  0  0  0  0  0  0
    1.8740  -53.3484   19.8618 O   0  0  0  0  0  0  0  0  0  0  0  0
    1.8626  -52.1322   17.5660 C   0  0  0  0  0  0  0  0  0  0  0  0
    1.4442  -52.0503   16.1279 C   0  0  0  0  0  0  0  0  0  0  0  0
    2.8976  -52.1652   16.4808 C   0  0  0  0  0  0  0  0  0  0  0  0
    4.3343  -52.2505   16.0580 C   0  0  0  0  0  0  0  0  0  0  0  0
    0.7946  -52.2171   21.9366 C   0  0  0  0  0  0  0  0  0  0  0  0
    1.3988  -52.0180   23.2950 N   0  0  0  0  0  0  0  0  0  0  0  0
   -0.7888  -52.2679   26.5969 C   0  0  0  0  0  0  0  0  0  0  0  0
   -0.6312  -53.7214   26.9320 N   0  0  0  0  0  0  0  0  0  0  0  0
    0.2030  -54.6072   26.0548 C   0  0  0  0  0  0  0  0  0  0  0  0
    0.8797  -54.0394   24.8425 N   0  0  0  0  0  0  0  0  0  0  0  0
    0.7221  -52.5858   24.5074 C   0  0  0  0  0  0  0  0  0  0  0  0
   -0.1121  -51.7001   25.3846 C   0  0  0  0  0  0  0  0  0  0  0  0
   -0.2697  -50.2465   25.0495 F   0  0  0  0  0  0  0  0  0  0  0  0
   -3.0712  -51.1588   27.1538 C   0  0  0  0  0  0  0  0  0  0  0  0
   -1.6230  -51.3821   27.4741 O   0  0  0  0  0  0  0  0  0  0  0  0
  1 14  1  6
  1  2  1  0
  2  3  1  0
  3  4  1  0
  3  5  1  0
  5  6  1  0
  6  7  1  0
  7  8  1  0
  7  1  1  0
  8  9  2  0
 10  8  1  0
 10 11  1  0
 11 12  1  0
 12 13  1  0
 12 10  1  0
 15 14  1  0
 16 17  2  0
 17 18  1  0
 18 19  2  0
 19 20  1  0
 20 15  1  0
 20 21  2  0
 21 22  1  0
 21 16  1  0
 23 24  1  0
 24 16  1  0
M  END
$$$$

     RDKit          3D

 28 30  0  0  0  0  0  0  0  0999 V2000
    0.7305  -52.3868   22.0368 C   0  0  0  0  0  0  0  0  0  0  0  0
    0.5768  -53.3877   20.9301 C   0  0  0  0  0  0  0  0  0  0  0  0
    0.4922  -52.9242   19.5060 C   0  0  0  0  0  0  0  0  0  0  0  0
    0.5613  -51.4597   19.1887 C   0  0  0  0  0  0  0  0  0  0  0  0
    0.7149  -50.4589   20.2953 C   0  0  0  0  0  0  0  0  0  0  0  0
    0.7995  -50.9225   21.7194 C   0  0  0  0  0  0  0  0  0  0  0  0
    0.4766  -50.9961   17.7646 C   0  0  0  0  0  0  0  0  0  0  0  0
   -0.6915  -50.1708   17.3127 O   0  0  0  0  0  0  0  0  0  0  0  0
    1.5602  -51.3580   16.7924 N   0  0  0  0  0  0  0  0  0  0  0  0
    2.7283  -52.1833   17.2444 C   0  0  0  0  0  0  0  0  0  0  0  0
    3.8118  -52.5451   16.2722 C   0  0  0  0  0  0  0  0  0  0  0  0
    3.7272  -52.0816   14.8482 N   0  0  0  0  0  0  0  0  0  0  0  0
    4.8108  -52.4434   13.8760 C   0  0  0  0  0  0  0  0  0  0  0  0
    2.5591  -51.2562   14.3962 C   0  0  0  0  0  0  0  0  0  0  0  0
    1.4756  -50.8944   15.3684 C   0  0  0  0  0  0  0  0  0  0  0  0
    0.3074  -50.0690   14.9165 C   0  0  0  0  0  0  0  0  0  0  0  0
    0.8151  -52.8504   23.4608 N   0  0  0  0  0  0  0  0  0  0  0  0
   -0.0260  -52.5344   25.8986 C   0  0  0  0  0  0  0  0  0  0  0  0
   -1.1309  -52.2100   26.8598 C   0  0  0  0  0  0  0  0  0  0  0  0
   -0.8671  -52.2184   28.3364 F   0  0  0  0  0  0  0  0  0  0  0  0
   -2.4997  -51.8772   26.3444 C   0  0  0  0  0  0  0  0  0  0  0  0
   -2.7636  -51.8688   24.8679 C   0  0  0  0  0  0  0  0  0  0  0  0
   -1.6587  -52.1932   23.9067 C   0  0  0  0  0  0  0  0  0  0  0  0
   -1.9225  -52.1848   22.4301 F   0  0  0  0  0  0  0  0  0  0  0  0
   -0.2899  -52.5260   24.4221 C   0  0  0  0  0  0  0  0  0  0  0  0
    1.3428  -52.8672   26.4140 O   0  0  0  0  0  0  0  0  0  0  0  0
    2.7585  -50.8172   25.6771 C   0  0  0  0  0  0  0  0  0  0  0  0
    2.3070  -51.7673   26.7464 C   0  0  0  0  0  0  0  0  0  0  0  0
  1  2  2  0
  2  3  1  0
  3  4  2  0
  4  7  1  0
  4  5  1  0
  5  6  2  0
  6  1  1  0
  7  8  2  0
  7  9  1  0
  9 10  1  0
 10 11  1  0
 11 12  1  0
 12 13  1  0
 12 14  1  0
 14 15  1  0
 15 16  1  0
 15  9  1  0
 17  1  1  0
 18 19  2  0
 19 20  1  0
 19 21  1  0
 21 22  2  0
 22 23  1  0
 23 24  1  0
 23 25  2  0
 25 17  1  0
 25 18  1  0
 26 18  1  0
 27 28  1  0
 28 26  1  0
M  CHG  1  12   1
M  END
$$$$

     RDKit          3D

 26 28  0  0  0  0  0  0  0  0999 V2000
    0.4871  -51.1142   18.7272 C   0  0  0  0  0  0  0  0  0  0  0  0
    0.4485  -49.9273   19.6437 C   0  0  0  0  0  0  0  0  0  0  0  0
    0.6098  -50.1164   21.1229 N   0  0  0  0  0  0  0  0  0  0  0  0
    0.8097  -51.4923   21.6858 C   0  0  0  0  0  0  0  0  0  0  0  0
    0.8483  -52.6792   20.7694 C   0  0  0  0  0  0  0  0  0  0  0  0
    1.0481  -54.0552   21.3322 Cl  0  0  0  0  0  0  0  0  0  0  0  0
    0.6870  -52.4901   19.2900 C   0  0  0  0  0  0  0  0  0  0  0  0
    0.0033  -50.5469   14.2894 C   0  0  0  0  0  0  0  0  0  0  0  0
    1.2827  -51.1043   14.8392 C   0  0  2  0  0  0  0  0  0  0  0  0
    2.4009  -51.4727   13.9097 C   0  0  0  0  0  0  0  0  0  0  0  0
    3.6803  -52.0302   14.4595 N   0  0  0  0  0  0  0  0  0  0  0  0
    4.7985  -52.3985   13.5299 C   0  0  0  0  0  0  0  0  0  0  0  0
    3.8416  -52.2193   15.9387 C   0  0  0  0  0  0  0  0  0  0  0  0
    2.7235  -51.8509   16.8682 C   0  0  0  0  0  0  0  0  0  0  0  0
    1.4440  -51.2934   16.3184 N   0  0  0  0  0  0  0  0  0  0  0  0
    0.3258  -50.9251   17.2480 C   0  0  0  0  0  0  0  0  0  0  0  0
   -0.9537  -50.3676   16.6982 O   0  0  0  0  0  0  0  0  0  0  0  0
    0.9709  -51.6814   23.1650 O   0  0  0  0  0  0  0  0  0  0  0  0
   -0.2254  -51.6009   24.0663 C   0  0  0  0  0  0  0  0  0  0  0  0
   -1.5533  -52.1184   23.5982 C   0  0  0  0  0  0  0  0  0  0  0  0
   -2.7496  -52.0379   24.4994 C   0  0  0  0  0  0  0  0  0  0  0  0
   -2.6181  -51.4399   25.8687 C   0  0  0  0  0  0  0  0  0  0  0  0
   -3.8145  -51.3593   26.7700 F   0  0  0  0  0  0  0  0  0  0  0  0
   -1.2903  -50.9224   26.3368 C   0  0  0  0  0  0  0  0  0  0  0  0
   -0.0940  -51.0029   25.4356 C   0  0  0  0  0  0  0  0  0  0  0  0
    1.2338  -50.4854   25.9037 F   0  0  0  0  0  0  0  0  0  0  0  0
  1  2  2  0
  2  3  1  0
  3  4  2  0
  4 18  1  0
  4  5  1  0
  5  6  1  0
  5  7  2  0
  7  1  1  0
  9  8  1  6
  9 10  1  0
 10 11  1  0
 11 12  1  0
 11 13  1  0
 13 14  1  0
 14 15  1  0
 15 16  1  0
 15  9  1  0
 16 17  2  0
 16  1  1  0
 18 19  1  0
 19 20  2  0
 20 21  1  0
 21 22  2  0
 22 23  1  0
 22 24  1  0
 24 25  2  0
 25 26  1  0
 25 19  1  0
M  CHG  1  11   1
M  END
$$$$

     RDKit          3D

 28 30  0  0  0  0  0  0  0  0999 V2000
   -0.1494  -51.7799   22.0034 C   0  0  0  0  0  0  0  0  0  0  0  0
    0.3831  -53.0709   21.4558 C   0  0  0  0  0  0  0  0  0  0  0  0
    1.0630  -53.0949   20.1190 C   0  0  0  0  0  0  0  0  0  0  0  0
    1.2105  -51.8279   19.3297 C   0  0  0  0  0  0  0  0  0  0  0  0
    0.6780  -50.5369   19.8772 C   0  0  0  0  0  0  0  0  0  0  0  0
   -0.0020  -50.5129   21.2141 C   0  0  0  0  0  0  0  0  0  0  0  0
   -0.5344  -49.2219   21.7616 Cl  0  0  0  0  0  0  0  0  0  0  0  0
    1.8904  -51.8518   17.9929 N   0  0  0  0  0  0  0  0  0  0  0  0
    1.1473  -51.4141   16.7655 C   0  0  0  0  0  0  0  0  0  0  0  0
   -0.2757  -50.9524   16.8751 O   0  0  0  0  0  0  0  0  0  0  0  0
    1.8272  -51.4381   15.4287 N   0  0  0  0  0  0  0  0  0  0  0  0
    1.0841  -51.0004   14.2015 C   0  0  0  0  0  0  0  0  0  0  0  0
    1.7640  -51.0243   12.8645 C   0  0  0  0  0  0  0  0  0  0  0  0
    3.1870  -51.4860   12.7550 N   0  0  0  0  0  0  0  0  0  0  0  0
    3.8669  -51.5100   11.4182 C   0  0  0  0  0  0  0  0  0  0  0  0
    3.9301  -51.9237   13.9824 C   0  0  0  0  0  0  0  0  0  0  0  0
    3.2502  -51.8998   15.3192 C   0  0  0  0  0  0  0  0  0  0  0  0
    3.9932  -52.3375   16.5464 C   0  0  0  0  0  0  0  0  0  0  0  0
   -0.8293  -51.7559   23.3402 O   0  0  0  0  0  0  0  0  0  0  0  0
   -0.6054  -52.1932   25.8914 C   0  0  0  0  0  0  0  0  0  0  0  0
    0.2125  -52.1593   27.1483 C   0  0  0  0  0  0  0  0  0  0  0  0
    1.6245  -51.6544   27.1109 C   0  0  0  0  0  0  0  0  0  0  0  0
    2.4424  -51.6205   28.3679 F   0  0  0  0  0  0  0  0  0  0  0  0
    2.2185  -51.1833   25.8167 C   0  0  0  0  0  0  0  0  0  0  0  0
    1.4006  -51.2171   24.5598 C   0  0  0  0  0  0  0  0  0  0  0  0
   -0.0114  -51.7221   24.5972 C   0  0  0  0  0  0  0  0  0  0  0  0
   -3.1236  -51.7982   26.3937 C   0  0  0  0  0  0  0  0  0  0  0  0
   -2.0174  -52.6981   25.9288 O   0  0  0  0  0  0  0  0  0  0  0  0
  1  2  2  0
  2  3  1  0
  3  4  2  0
  4  8  1  0
  4  5  1  0
  5  6  2  0
  6  7  1  0
  6  1  1  0
  8  9  1  0
  9 10  2  0
  9 11  1  0
 11 12  1  0
 12 13  1  0
 13 14  1  0
 14 15  1  0
 14 16  1  0
 16 17  1  0
 17 18  1  0
 17 11  1  0
 19  1  1  0
 20 21  2  0
 21 22  1  0
 22 23  1  0
 22 24  2  0
 24 25  1  0
 25 26  2  0
 26 19  1  0
 26 20  1  0
 27 28  1  0
 28 20  1  0
M  CHG  1  14   1
M  END
$$$$

     RDKit          3D

 25 27  0  0  0  0  0  0  0  0999 V2000
    0.5717  -51.6071   21.7748 C   0  0  0  0  0  0  0  0  0  0  0  0
    0.8943  -52.9661   22.3215 N   0  0  0  0  0  0  0  0  0  0  0  0
    1.4902  -54.0124   21.4268 C   0  0  0  0  0  0  0  0  0  0  0  0
    1.7635  -53.6995   19.9856 N   0  0  0  0  0  0  0  0  0  0  0  0
    1.4409  -52.3404   19.4389 C   0  0  0  0  0  0  0  0  0  0  0  0
    0.8450  -51.2942   20.3334 C   0  0  0  0  0  0  0  0  0  0  0  0
    0.5224  -49.9352   19.7867 C   0  0  0  0  0  0  0  0  0  0  0  0
    1.7143  -52.0275   17.9976 N   0  0  0  0  0  0  0  0  0  0  0  0
    0.6754  -51.3282   17.1718 C   0  0  0  0  0  0  0  0  0  0  0  0
    0.9487  -51.0154   15.7305 C   0  0  0  0  0  0  0  0  0  0  0  0
    2.2609  -51.4018   15.1149 C   0  0  0  0  0  0  0  0  0  0  0  0
    3.2997  -52.1010   15.9406 C   0  0  0  0  0  0  0  0  0  0  0  0
    4.6118  -52.4874   15.3250 C   0  0  0  0  0  0  0  0  0  0  0  0
    3.0264  -52.4139   17.3820 C   0  0  0  0  0  0  0  0  0  0  0  0
   -0.0243  -50.5609   22.6694 N   0  0  0  0  0  0  0  0  0  0  0  0
   -0.7780  -51.4070   26.4728 C   0  0  0  0  0  0  0  0  0  0  0  0
   -2.2291  -51.7793   26.3982 C   0  0  0  0  0  0  0  0  0  0  0  0
   -2.9642  -52.1855   27.6411 F   0  0  0  0  0  0  0  0  0  0  0  0
   -2.9453  -51.7455   25.0806 C   0  0  0  0  0  0  0  0  0  0  0  0
   -2.2104  -51.3393   23.8377 C   0  0  0  0  0  0  0  0  0  0  0  0
   -0.7593  -50.9671   23.9124 C   0  0  0  0  0  0  0  0  0  0  0  0
   -0.0431  -51.0009   25.2299 C   0  0  0  0  0  0  0  0  0  0  0  0
    1.4081  -50.6286   25.3045 F   0  0  0  0  0  0  0  0  0  0  0  0
    1.0013  -52.4692   28.0399 C   0  0  0  0  0  0  0  0  0  0  0  0
   -0.0618  -51.4409   27.7904 O   0  0  0  0  0  0  0  0  0  0  0  0
  1  2  2  0
  2  3  1  0
  3  4  2  0
  4  5  1  0
  5  8  1  0
  5  6  2  0
  6  7  1  0
  6  1  1  0
  8  9  1  0
  9 10  1  0
 10 11  1  0
 11 12  1  0
 12 13  1  0
 12 14  1  0
 14  8  1  0
 15  1  1  0
 16 17  2  0
 17 18  1  0
 17 19  1  0
 19 20  2  0
 20 21  1  0
 21 15  1  0
 21 22  2  0
 22 23  1  0
 22 16  1  0
 24 25  1  0
 25 16  1  0
M  END
$$$$

     RDKit          3D

 24 26  0  0  0  0  0  0  0  0999 V2000
    1.2150  -51.5115   18.0325 N   0  0  0  0  0  0  0  0  0  0  0  0
    0.5955  -50.1696   17.7766 C   0  0  0  0  0  0  0  0  0  0  0  0
   -0.0466  -49.4131   18.9016 C   0  0  0  0  0  0  0  0  0  0  0  0
   -0.6661  -48.0713   18.6458 C   0  0  0  0  0  0  0  0  0  0  0  0
   -0.0691  -49.9986   20.2825 C   0  0  0  0  0  0  0  0  0  0  0  0
    0.5504  -51.3406   20.5383 C   0  0  0  0  0  0  0  0  0  0  0  0
    0.5279  -51.9261   21.9191 C   0  0  0  0  0  0  0  0  0  0  0  0
    1.1474  -53.2679   22.1750 N   0  0  0  0  0  0  0  0  0  0  0  0
    1.7895  -54.0243   21.0500 C   0  0  0  0  0  0  0  0  0  0  0  0
    1.8120  -53.4389   19.6692 N   0  0  0  0  0  0  0  0  0  0  0  0
    1.1925  -52.0970   19.4133 C   0  0  0  0  0  0  0  0  0  0  0  0
    3.3513  -52.2957   16.7790 C   0  0  0  0  0  0  0  0  0  0  0  0
    1.8570  -52.2679   16.9075 C   0  0  0  0  0  0  0  0  0  0  0  0
   -0.1142  -51.1696   23.0441 N   0  0  0  0  0  0  0  0  0  0  0  0
    0.2935  -51.4440   24.4613 C   0  0  0  0  0  0  0  0  0  0  0  0
    1.6520  -51.0304   24.9444 C   0  0  0  0  0  0  0  0  0  0  0  0
    2.0597  -51.3048   26.3616 C   0  0  0  0  0  0  0  0  0  0  0  0
    1.1090  -51.9928   27.2957 C   0  0  0  0  0  0  0  0  0  0  0  0
    1.5167  -52.2672   28.7130 Cl  0  0  0  0  0  0  0  0  0  0  0  0
   -0.2496  -52.4064   26.8127 C   0  0  0  0  0  0  0  0  0  0  0  0
   -1.2004  -53.0944   27.7468 F   0  0  0  0  0  0  0  0  0  0  0  0
   -0.6573  -52.1320   25.3955 C   0  0  0  0  0  0  0  0  0  0  0  0
   -2.0158  -52.5456   24.9124 O   0  0  0  0  0  0  0  0  0  0  0  0
   -3.2301  -51.7751   25.3388 C   0  0  0  0  0  0  0  0  0  0  0  0
  1  2  1  0
  2  3  1  0
  3  4  1  0
  3  5  1  0
  5  6  1  0
  6  7  2  0
  7 14  1  0
  7  8  1  0
  8  9  2  0
  9 10  1  0
 10 11  2  0
 11  1  1  0
 11  6  1  0
 12 13  1  0
 13  1  1  0
 14 15  1  0
 15 16  2  0
 16 17  1  0
 17 18  2  0
 18 19  1  0
 18 20  1  0
 20 21  1  0
 20 22  2  0
 22 23  1  0
 22 15  1  0
 23 24  1  0
M  END
$$$$

     RDKit          3D

 26 29  0  0  0  0  0  0  0  0999 V2000
    0.3591  -52.1444   21.9284 C   0  0  0  0  0  0  0  0  0  0  0  0
    1.1493  -53.4010   22.1441 N   0  0  0  0  0  0  0  0  0  0  0  0
    1.9673  -53.9739   21.0249 C   0  0  0  0  0  0  0  0  0  0  0  0
    1.9951  -53.2903   19.6901 N   0  0  0  0  0  0  0  0  0  0  0  0
    1.2049  -52.0337   19.4744 C   0  0  0  0  0  0  0  0  0  0  0  0
    0.3869  -51.4608   20.5936 C   0  0  0  0  0  0  0  0  0  0  0  0
   -0.4033  -50.2041   20.3779 C   0  0  0  0  0  0  0  0  0  0  0  0
   -0.3755  -49.5205   19.0430 C   0  0  0  0  0  0  0  0  0  0  0  0
   -1.1657  -48.2639   18.8273 C   0  0  0  0  0  0  0  0  0  0  0  0
   -1.1379  -47.5803   17.4925 C   0  0  0  0  0  0  0  0  0  0  0  0
   -0.3200  -48.1532   16.3733 N   0  0  0  0  0  0  0  0  0  0  0  0
   -0.2922  -47.4696   15.0384 C   0  0  0  0  0  0  0  0  0  0  0  0
    0.4703  -49.4099   16.5890 C   0  0  0  0  0  0  0  0  0  0  0  0
    0.4425  -50.0935   17.9238 C   0  0  0  0  0  0  0  0  0  0  0  0
    1.2327  -51.3501   18.1395 O   0  0  0  0  0  0  0  0  0  0  0  0
   -0.4589  -51.5714   23.0476 N   0  0  0  0  0  0  0  0  0  0  0  0
   -0.8735  -52.2828   25.5118 C   0  0  0  0  0  0  0  0  0  0  0  0
    0.0209  -51.6895   24.4639 C   0  0  0  0  0  0  0  0  0  0  0  0
    1.3951  -51.2142   24.8323 C   0  0  0  0  0  0  0  0  0  0  0  0
    1.8749  -51.3322   26.2486 C   0  0  0  0  0  0  0  0  0  0  0  0
    0.9804  -51.9256   27.2965 C   0  0  0  0  0  0  0  0  0  0  0  0
    1.4602  -52.0437   28.7128 Cl  0  0  0  0  0  0  0  0  0  0  0  0
   -0.3937  -52.4009   26.9281 C   0  0  0  0  0  0  0  0  0  0  0  0
   -1.2882  -52.9942   27.9759 F   0  0  0  0  0  0  0  0  0  0  0  0
   -3.4409  -51.8941   25.4256 C   0  0  0  0  0  0  0  0  0  0  0  0
   -2.2477  -52.7581   25.1433 O   0  0  0  0  0  0  0  0  0  0  0  0
  1  2  2  0
  2  3  1  0
  3  4  2  0
  4  5  1  0
  5  6  2  0
  6  7  1  0
  6  1  1  0
  8  7  1  0
  8  9  1  0
  9 10  1  0
 10 11  1  0
 11 12  1  0
 11 13  1  0
 14 13  1  0
 14 15  1  0
 14  8  1  0
 15  5  1  0
 16  1  1  0
 17 18  2  0
 18 16  1  0
 18 19  1  0
 19 20  2  0
 20 21  1  0
 21 22  1  0
 21 23  2  0
 23 24  1  0
 23 17  1  0
 25 26  1  0
 26 17  1  0
M  CHG  1  11   1
M  END
$$$$

     RDKit          3D

 28 31  0  0  0  0  0  0  0  0999 V2000
    1.0217  -51.9077   22.5778 C   0  0  0  0  0  0  0  0  0  0  0  0
    1.1677  -53.3533   22.9503 N   0  0  0  0  0  0  0  0  0  0  0  0
    1.4120  -54.3812   21.8854 C   0  0  0  0  0  0  0  0  0  0  0  0
    1.5103  -53.9634   20.4481 N   0  0  0  0  0  0  0  0  0  0  0  0
    1.3643  -52.5177   20.0757 C   0  0  0  0  0  0  0  0  0  0  0  0
    1.1200  -51.4899   21.1404 C   0  0  0  0  0  0  0  0  0  0  0  0
    0.9739  -50.0442   20.7680 Cl  0  0  0  0  0  0  0  0  0  0  0  0
    1.4626  -52.0999   18.6383 C   0  0  2  0  0  0  0  0  0  0  0  0
    0.3426  -51.3309   18.0026 C   0  0  0  0  0  0  0  0  0  0  0  0
    0.4409  -50.9132   16.5653 C   0  0  0  0  0  0  0  0  0  0  0  0
    1.6592  -51.2645   15.7638 C   0  0  0  0  0  0  0  0  0  0  0  0
    2.0360  -50.9903   14.3380 C   0  0  0  0  0  0  0  0  0  0  0  0
    3.3889  -51.5899   14.0926 N   0  0  0  0  0  0  0  0  0  0  0  0
    4.1491  -51.5515   12.8000 C   0  0  0  0  0  0  0  0  0  0  0  0
    3.8482  -52.2346   15.3667 C   0  0  0  0  0  0  0  0  0  0  0  0
    2.7792  -52.0335   16.3996 C   0  0  0  0  0  0  0  0  0  0  0  0
    2.6808  -52.4512   17.8368 C   0  0  0  0  0  0  0  0  0  0  0  0
    0.7774  -50.8798   23.6425 N   0  0  0  0  0  0  0  0  0  0  0  0
    0.3590  -51.9128   27.4515 C   0  0  0  0  0  0  0  0  0  0  0  0
    1.7756  -51.8028   27.9323 C   0  0  0  0  0  0  0  0  0  0  0  0
    2.8594  -51.3852   26.9832 C   0  0  0  0  0  0  0  0  0  0  0  0
    2.5267  -51.0775   25.5533 C   0  0  0  0  0  0  0  0  0  0  0  0
    1.1101  -51.1875   25.0725 C   0  0  0  0  0  0  0  0  0  0  0  0
    0.0263  -51.6051   26.0216 C   0  0  0  0  0  0  0  0  0  0  0  0
   -1.4109  -53.6522   28.2208 C   0  0  0  0  0  0  0  0  0  0  0  0
   -0.7249  -52.3304   28.4006 O   0  0  0  0  0  0  0  0  0  0  0  0
   -1.3904  -51.7151   25.5408 O   0  0  0  0  0  0  0  0  0  0  0  0
   -2.3443  -50.5767   25.7511 C   0  0  0  0  0  0  0  0  0  0  0  0
  1  2  2  0
  2  3  1  0
  3  4  2  0
  4  5  1  0
  5  6  2  0
  6  7  1  0
  6  1  1  0
  8  5  1  6
  8  9  1  0
  9 10  1  0
 11 10  1  0
 11 12  1  0
 12 13  1  0
 13 14  1  0
 13 15  1  0
 16 15  1  0
 16 17  1  0
 16 11  1  0
 17  8  1  0
 18  1  1  0
 19 20  2  0
 20 21  1  0
 21 22  2  0
 22 23  1  0
 23 18  1  0
 23 24  2  0
 24 27  1  0
 24 19  1  0
 25 26  1  0
 26 19  1  0
 27 28  1  0
M  CHG  1  13   1
M  END
$$$$

     RDKit          3D

 25 26  0  0  0  0  0  0  0  0999 V2000
   -3.0438  -49.4955   21.4751 C   0  0  0  0  0  0  0  0  0  0  0  0
   -0.4514  -49.5667   21.6314 C   0  0  0  0  0  0  0  0  0  0  0  0
   -1.7235  -49.9752   20.9494 N   0  0  0  0  0  0  0  0  0  0  0  0
   -1.6750  -50.8636   19.7418 C   0  0  0  0  0  0  0  0  0  0  0  0
   -2.9470  -51.2722   19.0598 O   0  0  0  0  0  0  0  0  0  0  0  0
   -0.3546  -51.3434   19.2161 C   0  0  0  0  0  0  0  0  0  0  0  0
    0.1191  -50.9020   17.8630 C   0  0  0  0  0  0  0  0  0  0  0  0
    1.4395  -51.3818   17.3374 C   0  0  0  0  0  0  0  0  0  0  0  0
    1.9133  -50.9405   15.9843 F   0  0  0  0  0  0  0  0  0  0  0  0
    2.2862  -52.3029   18.1649 C   0  0  0  0  0  0  0  0  0  0  0  0
    1.8125  -52.7443   19.5179 C   0  0  0  0  0  0  0  0  0  0  0  0
    2.6592  -53.6654   20.3453 F   0  0  0  0  0  0  0  0  0  0  0  0
    0.4921  -52.2645   20.0435 C   0  0  0  0  0  0  0  0  0  0  0  0
   -3.8115  -50.3348   22.4529 C   0  0  0  0  0  0  0  0  0  0  0  0
   -3.1956  -51.5806   23.0176 C   0  0  0  0  0  0  0  0  0  0  0  0
   -3.0507  -51.7392   24.5021 N   0  0  0  0  0  0  0  0  0  0  0  0
   -4.2693  -51.7616   25.3765 C   0  0  0  0  0  0  0  0  0  0  0  0
   -1.6872  -51.8754   25.1123 C   0  0  0  0  0  0  0  0  0  0  0  0
   -1.1036  -53.2369   25.3481 N   0  0  0  0  0  0  0  0  0  0  0  0
    0.2599  -53.3730   25.9583 C   0  0  0  0  0  0  0  0  0  0  0  0
    1.0398  -52.1476   26.3326 C   0  0  0  0  0  0  0  0  0  0  0  0
    0.4562  -50.7861   26.0968 N   0  0  0  0  0  0  0  0  0  0  0  0
   -0.9072  -50.6500   25.4866 C   0  0  0  0  0  0  0  0  0  0  0  0
   -1.4909  -49.2884   25.2507 C   0  0  0  0  0  0  0  0  0  0  0  0
   -2.0744  -47.9269   25.0148 N   0  0  0  0  0  0  0  0  0  0  0  0
  1 14  1  0
  2  3  1  0
  3  1  1  0
  3  4  1  0
  4  5  2  0
  4  6  1  0
  6  7  2  0
  7  8  1  0
  8  9  1  0
  8 10  2  0
 10 11  1  0
 11 12  1  0
 11 13  2  0
 13  6  1  0
 14 15  1  0
 15 16  1  0
 16 17  1  0
 16 18  1  0
 18 19  2  0
 19 20  1  0
 20 21  2  0
 21 22  1  0
 22 23  2  0
 23 24  1  0
 23 18  1  0
 24 25  3  0
M  END
$$$$

     RDKit          3D

 25 27  0  0  0  0  0  0  0  0999 V2000
    1.2923  -53.8285   23.4095 C   0  0  0  0  0  0  0  0  0  0  0  0
    0.6741  -54.8447   24.3235 C   0  0  0  0  0  0  0  0  0  0  0  0
    0.2275  -54.4436   25.6982 C   0  0  0  0  0  0  0  0  0  0  0  0
    0.3992  -53.0264   26.1589 C   0  0  0  0  0  0  0  0  0  0  0  0
    1.0173  -52.0103   25.2449 C   0  0  0  0  0  0  0  0  0  0  0  0
    1.1890  -50.5931   25.7056 F   0  0  0  0  0  0  0  0  0  0  0  0
    1.4639  -52.4114   23.8702 C   0  0  0  0  0  0  0  0  0  0  0  0
    1.7389  -54.2296   22.0349 N   0  0  0  0  0  0  0  0  0  0  0  0
    2.8763  -52.4791   17.2765 C   0  0  0  0  0  0  0  0  0  0  0  0
    1.9770  -52.4875   18.4770 C   0  0  0  0  0  0  0  0  0  0  0  0
    2.3076  -53.3543   19.6556 N   0  0  0  0  0  0  0  0  0  0  0  0
    1.4083  -53.3627   20.8562 C   0  0  0  0  0  0  0  0  0  0  0  0
    0.1785  -52.5042   20.8781 C   0  0  0  0  0  0  0  0  0  0  0  0
   -0.1521  -51.6373   19.6994 C   0  0  0  0  0  0  0  0  0  0  0  0
    0.7472  -51.6290   18.4989 C   0  0  0  0  0  0  0  0  0  0  0  0
    0.4166  -50.7621   17.3202 Cl  0  0  0  0  0  0  0  0  0  0  0  0
   -0.0474  -52.6253   27.5336 O   0  0  0  0  0  0  0  0  0  0  0  0
   -1.4657  -52.8628   27.9605 C   0  0  0  0  0  0  0  0  0  0  0  0
   -2.5665  -51.9998   27.4188 C   0  0  0  0  0  0  0  0  0  0  0  0
   -2.4175  -51.3494   26.0754 N   0  0  0  0  0  0  0  0  0  0  0  0
   -2.7142  -52.1281   24.8282 C   0  0  0  0  0  0  0  0  0  0  0  0
   -2.5653  -51.4777   23.4847 C   0  0  0  0  0  0  0  0  0  0  0  0
   -2.1196  -50.0487   23.3885 O   0  0  0  0  0  0  0  0  0  0  0  0
   -1.8229  -49.2700   24.6358 C   0  0  0  0  0  0  0  0  0  0  0  0
   -1.9719  -49.9204   25.9792 C   0  0  0  0  0  0  0  0  0  0  0  0
  1  2  2  0
  2  3  1  0
  3  4  2  0
  4 17  1  0
  4  5  1  0
  5  6  1  0
  5  7  2  0
  7  1  1  0
  8  1  1  0
  9 10  1  0
 10 11  2  0
 11 12  1  0
 12  8  1  0
 12 13  2  0
 13 14  1  0
 14 15  2  0
 15 16  1  0
 15 10  1  0
 17 18  1  0
 18 19  1  0
 19 20  1  0
 20 21  1  0
 21 22  1  0
 22 23  1  0
 23 24  1  0
 24 25  1  0
 25 20  1  0
M  CHG  1  20   1
M  END
$$$$

     RDKit          3D

 25 27  0  0  0  0  0  0  0  0999 V2000
    0.9086  -51.2352   21.0319 C   0  0  0  0  0  0  0  0  0  0  0  0
    0.5056  -49.9228   20.4275 C   0  0  0  0  0  0  0  0  0  0  0  0
    0.4593  -49.7666   18.9363 C   0  0  0  0  0  0  0  0  0  0  0  0
    0.8161  -50.9228   18.0497 C   0  0  0  0  0  0  0  0  0  0  0  0
    1.2190  -52.2351   18.6542 C   0  0  0  0  0  0  0  0  0  0  0  0
    1.2653  -52.3913   20.1453 C   0  0  0  0  0  0  0  0  0  0  0  0
    1.6683  -53.7037   20.7498 Cl  0  0  0  0  0  0  0  0  0  0  0  0
    0.9549  -51.3914   22.5231 N   0  0  0  0  0  0  0  0  0  0  0  0
   -1.5172  -52.3440   25.4780 C   0  0  0  0  0  0  0  0  0  0  0  0
   -0.2505  -52.1139   24.7083 C   0  0  0  0  0  0  0  0  0  0  0  0
   -0.3120  -51.6216   23.2927 C   0  0  0  0  0  0  0  0  0  0  0  0
   -1.6401  -51.3595   22.6468 C   0  0  0  0  0  0  0  0  0  0  0  0
   -2.9068  -51.5897   23.4164 C   0  0  0  0  0  0  0  0  0  0  0  0
   -2.8454  -52.0819   24.8320 C   0  0  0  0  0  0  0  0  0  0  0  0
   -4.1122  -52.3121   25.6017 F   0  0  0  0  0  0  0  0  0  0  0  0
   -0.2352  -53.5563   27.3849 C   0  0  0  0  0  0  0  0  0  0  0  0
   -1.4558  -52.8363   26.8936 O   0  0  0  0  0  0  0  0  0  0  0  0
    0.7698  -50.7666   16.5586 C   0  0  0  0  0  0  0  0  0  0  0  0
    1.2862  -51.8620   15.6733 C   0  0  0  0  0  0  0  0  0  0  0  0
    2.6904  -51.8035   15.1492 N   0  0  0  0  0  0  0  0  0  0  0  0
    3.8127  -52.4045   15.9424 C   0  0  0  0  0  0  0  0  0  0  0  0
    5.2169  -52.3460   15.4182 C   0  0  0  0  0  0  0  0  0  0  0  0
    5.4988  -51.6865   14.1008 O   0  0  0  0  0  0  0  0  0  0  0  0
    4.3765  -51.0855   13.3075 C   0  0  0  0  0  0  0  0  0  0  0  0
    2.9723  -51.1440   13.8317 C   0  0  0  0  0  0  0  0  0  0  0  0
  1  2  2  0
  2  3  1  0
  3  4  2  0
  4 18  1  0
  4  5  1  0
  5  6  2  0
  6  7  1  0
  6  1  1  0
  8  1  1  0
  9 10  2  0
 10 11  1  0
 11  8  1  0
 11 12  2  0
 12 13  1  0
 13 14  2  0
 14 15  1  0
 14  9  1  0
 16 17  1  0
 17  9  1  0
 18 19  1  0
 19 20  1  0
 20 21  1  0
 21 22  1  0
 22 23  1  0
 23 24  1  0
 24 25  1  0
 25 20  1  0
M  CHG  1  20   1
M  END
$$$$

     RDKit          3D

 24 25  0  0  0  0  0  0  0  0999 V2000
   -1.3445  -50.1551   19.0301 N   0  0  0  0  0  0  0  0  0  0  0  0
   -2.4141  -50.5599   18.0595 C   0  0  0  0  0  0  0  0  0  0  0  0
   -1.5954  -50.2513   20.5058 C   0  0  0  0  0  0  0  0  0  0  0  0
   -2.9160  -50.7522   21.0109 O   0  0  0  0  0  0  0  0  0  0  0  0
   -0.5258  -49.8465   21.4764 N   0  0  0  0  0  0  0  0  0  0  0  0
   -0.7768  -49.9428   22.9522 C   0  0  0  0  0  0  0  0  0  0  0  0
   -1.7330  -48.9952   23.6136 C   0  0  0  0  0  0  0  0  0  0  0  0
   -1.9840  -49.0914   25.0893 C   0  0  0  0  0  0  0  0  0  0  0  0
   -1.2787  -50.1352   25.9035 C   0  0  0  0  0  0  0  0  0  0  0  0
   -0.3224  -51.0828   25.2421 C   0  0  0  0  0  0  0  0  0  0  0  0
   -0.0715  -50.9866   23.7664 C   0  0  0  0  0  0  0  0  0  0  0  0
    0.8848  -51.9342   23.1048 C   0  0  0  0  0  0  0  0  0  0  0  0
    0.3829  -52.1267   26.0563 O   0  0  0  0  0  0  0  0  0  0  0  0
    1.6013  -51.7612   26.8510 C   0  0  0  0  0  0  0  0  0  0  0  0
    1.6122  -51.9539   28.3386 C   0  0  0  0  0  0  0  0  0  0  0  0
    2.8091  -51.2030   26.1583 C   0  0  0  0  0  0  0  0  0  0  0  0
   -0.0239  -49.6542   18.5249 C   0  0  0  0  0  0  0  0  0  0  0  0
    1.5577  -51.7116   17.8844 N   0  0  0  0  0  0  0  0  0  0  0  0
    2.1897  -52.2097   16.6185 C   0  0  0  0  0  0  0  0  0  0  0  0
    1.7923  -51.2843   15.5067 C   0  0  0  0  0  0  0  0  0  0  0  0
    0.9147  -50.2144   16.0856 C   0  0  0  0  0  0  0  0  0  0  0  0
    0.7697  -50.4785   17.5551 C   0  0  0  0  0  0  0  0  0  0  0  0
    0.6357  -53.2804   19.7389 C   0  0  0  0  0  0  0  0  0  0  0  0
    1.6904  -52.3369   19.2413 C   0  0  0  0  0  0  0  0  0  0  0  0
  1  2  1  0
  1  3  1  0
  3  4  2  0
  3  5  1  0
  5  6  1  0
  6  7  2  0
  7  8  1  0
  8  9  2  0
  9 10  1  0
 10 13  1  0
 10 11  2  0
 11 12  1  0
 11  6  1  0
 13 14  1  0
 14 15  1  0
 14 16  1  0
 17  1  1  0
 18 19  1  0
 19 20  1  0
 20 21  1  0
 21 22  1  0
 22 17  1  0
 22 18  1  0
 23 24  1  0
 24 18  1  0
M  CHG  1  18   1
M  END
$$$$

     RDKit          3D

 24 26  0  0  0  0  0  0  0  0999 V2000
    1.2168  -52.2649   21.2831 C   0  0  1  0  0  0  0  0  0  0  0  0
    2.1171  -53.0509   20.3767 C   0  0  0  0  0  0  0  0  0  0  0  0
    2.1218  -52.7763   18.9021 C   0  0  0  0  0  0  0  0  0  0  0  0
    1.2261  -51.7157   18.3339 C   0  0  0  0  0  0  0  0  0  0  0  0
    0.3258  -50.9296   19.2403 N   0  0  0  0  0  0  0  0  0  0  0  0
    0.3211  -51.2043   20.7149 C   0  0  0  0  0  0  0  0  0  0  0  0
    1.2919  -53.9514   23.2580 O   0  0  0  0  0  0  0  0  0  0  0  0
    1.2120  -52.5395   22.7578 C   0  0  0  0  0  0  0  0  0  0  0  0
    1.1275  -51.4022   23.7322 N   0  0  0  0  0  0  0  0  0  0  0  0
    1.1228  -51.6768   25.2069 C   0  0  0  0  0  0  0  0  0  0  0  0
    2.3378  -51.3692   26.0309 C   0  0  0  0  0  0  0  0  0  0  0  0
    2.3330  -51.6438   27.5055 C   0  0  0  0  0  0  0  0  0  0  0  0
    1.1133  -52.2260   28.1561 C   0  0  0  0  0  0  0  0  0  0  0  0
   -0.1017  -52.5337   27.3320 C   0  0  0  0  0  0  0  0  0  0  0  0
   -1.3214  -53.1159   27.9826 Cl  0  0  0  0  0  0  0  0  0  0  0  0
   -0.0969  -52.2591   25.8574 C   0  0  0  0  0  0  0  0  0  0  0  0
   -0.5699  -49.8690   18.6720 C   0  0  0  0  0  0  0  0  0  0  0  0
   -1.8986  -50.2444   18.0861 C   0  0  0  0  0  0  0  0  0  0  0  0
   -2.7302  -51.3110   18.7349 O   0  0  0  0  0  0  0  0  0  0  0  0
   -2.3960  -49.5531   16.8512 N   0  0  0  0  0  0  0  0  0  0  0  0
   -1.6793  -48.4733   16.0960 C   0  0  0  0  0  0  0  0  0  0  0  0
   -2.5377  -48.0731   14.9328 C   0  0  0  0  0  0  0  0  0  0  0  0
   -3.7850  -48.9057   14.9691 C   0  0  0  0  0  0  0  0  0  0  0  0
   -3.6974  -49.8204   16.1548 C   0  0  0  0  0  0  0  0  0  0  0  0
  1  8  1  6
  1  2  1  0
  2  3  1  0
  3  4  1  0
  4  5  1  0
  5 17  1  0
  5  6  1  0
  6  1  1  0
  7  8  2  0
  8  9  1  0
  9 10  1  0
 10 11  2  0
 11 12  1  0
 12 13  2  0
 13 14  1  0
 14 15  1  0
 14 16  2  0
 16 10  1  0
 17 18  1  0
 18 19  2  0
 18 20  1  0
 20 21  1  0
 21 22  1  0
 22 23  1  0
 23 24  1  0
 24 20  1  0
M  CHG  1   5   1
M  END
$$$$

     RDKit          3D

 23 24  0  0  0  0  0  0  0  0999 V2000
   -0.1361  -51.7954   19.6641 C   0  0  0  0  0  0  0  0  0  0  0  0
    0.9036  -51.6932   18.5878 C   0  0  0  0  0  0  0  0  0  0  0  0
    2.1765  -52.4792   18.6975 C   0  0  0  0  0  0  0  0  0  0  0  0
    2.4097  -53.3674   19.8835 N   0  0  0  0  0  0  0  0  0  0  0  0
    1.3700  -53.4696   20.9598 C   0  0  0  0  0  0  0  0  0  0  0  0
    0.0971  -52.6836   20.8501 C   0  0  0  0  0  0  0  0  0  0  0  0
   -1.6531  -49.8459   20.4690 N   0  0  0  0  0  0  0  0  0  0  0  0
   -2.9259  -49.0599   20.3593 C   0  0  0  0  0  0  0  0  0  0  0  0
   -1.4089  -51.0094   19.5544 C   0  0  0  0  0  0  0  0  0  0  0  0
   -2.4376  -51.3870   18.5302 O   0  0  0  0  0  0  0  0  0  0  0  0
   -0.9498  -49.5654   22.9543 C   0  0  0  0  0  0  0  0  0  0  0  0
   -0.6243  -49.4682   21.4933 C   0  0  0  0  0  0  0  0  0  0  0  0
    1.6031  -54.3578   22.1459 N   0  0  0  0  0  0  0  0  0  0  0  0
    1.1966  -53.9018   23.5158 C   0  0  0  0  0  0  0  0  0  0  0  0
    1.2310  -52.4426   23.8615 C   0  0  0  0  0  0  0  0  0  0  0  0
    0.8244  -51.9866   25.2315 C   0  0  0  0  0  0  0  0  0  0  0  0
    0.8588  -50.5274   25.5772 F   0  0  0  0  0  0  0  0  0  0  0  0
    0.3834  -52.9898   26.2557 C   0  0  0  0  0  0  0  0  0  0  0  0
    0.3490  -54.4491   25.9100 C   0  0  0  0  0  0  0  0  0  0  0  0
   -0.0920  -55.4523   26.9343 F   0  0  0  0  0  0  0  0  0  0  0  0
    0.7556  -54.9051   24.5401 C   0  0  0  0  0  0  0  0  0  0  0  0
   -0.0232  -52.5338   27.6257 O   0  0  0  0  0  0  0  0  0  0  0  0
   -1.4712  -52.5338   28.0171 C   0  0  0  0  0  0  0  0  0  0  0  0
  1  2  2  0
  2  3  1  0
  3  4  2  0
  4  5  1  0
  5 13  1  0
  5  6  2  0
  6  1  1  0
  7  8  1  0
  7  9  1  0
  9 10  2  0
  9  1  1  0
 11 12  1  0
 12  7  1  0
 13 14  1  0
 14 15  2  0
 15 16  1  0
 16 17  1  0
 16 18  2  0
 18 22  1  0
 18 19  1  0
 19 20  1  0
 19 21  2  0
 21 14  1  0
 22 23  1  0
M  END
$$$$

     RDKit          3D

 28 29  0  0  0  0  0  0  0  0999 V2000
   -1.1656  -50.4786   17.9084 C   0  0  0  0  0  0  0  0  0  0  0  0
   -0.9466  -51.0240   19.2884 N   0  0  0  0  0  0  0  0  0  0  0  0
    0.3061  -51.7864   19.6035 C   0  0  0  0  0  0  0  0  0  0  0  0
    1.3399  -52.0034   18.5386 C   0  0  0  0  0  0  0  0  0  0  0  0
    1.1210  -51.4580   17.1586 C   0  0  0  0  0  0  0  0  0  0  0  0
   -0.1318  -50.6956   16.8435 N   0  0  0  0  0  0  0  0  0  0  0  0
    0.5251  -52.3318   20.9836 C   0  0  0  0  0  0  0  0  0  0  0  0
    1.2033  -53.6570   21.1675 C   0  0  0  0  0  0  0  0  0  0  0  0
    1.4223  -54.2024   22.5475 C   0  0  0  0  0  0  0  0  0  0  0  0
    0.9630  -53.4226   23.7438 C   0  0  0  0  0  0  0  0  0  0  0  0
    0.2847  -52.0974   23.5600 C   0  0  0  0  0  0  0  0  0  0  0  0
    0.0658  -51.5520   22.1798 C   0  0  0  0  0  0  0  0  0  0  0  0
   -0.1746  -51.3177   24.7562 C   0  0  0  0  0  0  0  0  0  0  0  0
    1.2355  -50.8723   25.0073 C   0  0  0  0  0  0  0  0  0  0  0  0
   -1.5847  -51.7630   24.5050 C   0  0  0  0  0  0  0  0  0  0  0  0
   -0.6339  -50.5379   25.9523 C   0  0  0  0  0  0  0  0  0  0  0  0
    1.1819  -53.9681   25.1238 O   0  0  0  0  0  0  0  0  0  0  0  0
    0.0945  -54.7457   25.8042 C   0  0  0  0  0  0  0  0  0  0  0  0
    2.1548  -51.6750   16.0936 N   0  0  0  0  0  0  0  0  0  0  0  0
    1.9306  -51.1396   14.7104 C   0  0  0  0  0  0  0  0  0  0  0  0
    3.4129  -52.4274   16.4117 C   0  0  0  0  0  0  0  0  0  0  0  0
   -2.4184  -49.7162   17.5933 N   0  0  0  0  0  0  0  0  0  0  0  0
   -3.4364  -49.4697   18.6669 C   0  0  0  0  0  0  0  0  0  0  0  0
   -2.6532  -49.2004   16.2045 C   0  0  0  0  0  0  0  0  0  0  0  0
   -1.9564  -51.1920   12.8432 C   0  0  0  0  0  0  0  0  0  0  0  0
   -1.7874  -50.2304   13.9819 N   0  0  0  0  0  0  0  0  0  0  0  0
   -2.8222  -50.1621   15.0658 C   0  0  0  0  0  0  0  0  0  0  0  0
   -4.0259  -51.0554   15.0109 O   0  0  0  0  0  0  0  0  0  0  0  0
  1  2  2  0
  2  3  1  0
  3  7  1  0
  3  4  2  0
  4  5  1  0
  5 19  1  0
  5  6  2  0
  6  1  1  0
  7  8  2  0
  8  9  1  0
  9 10  2  0
 10 17  1  0
 10 11  1  0
 11 13  1  0
 11 12  2  0
 12  7  1  0
 13 14  1  0
 13 15  1  0
 13 16  1  0
 17 18  1  0
 19 20  1  0
 19 21  1  0
 22 23  1  0
 22  1  1  0
 24 22  1  0
 25 26  1  0
 26 27  1  0
 27 28  2  0
 27 24  1  0
M  END
$$$$

     RDKit          3D

 26 27  0  0  0  0  0  0  0  0999 V2000
    1.2961  -51.2246   16.4520 C   0  0  0  0  0  0  0  0  0  0  0  0
    0.2054  -50.6964   17.3360 C   0  0  0  0  0  0  0  0  0  0  0  0
    0.1694  -51.0709   18.7880 C   0  0  0  0  0  0  0  0  0  0  0  0
    1.2240  -51.9736   19.3562 C   0  0  0  0  0  0  0  0  0  0  0  0
    2.3147  -52.5018   18.4723 C   0  0  0  0  0  0  0  0  0  0  0  0
    2.3507  -52.1273   17.0202 C   0  0  0  0  0  0  0  0  0  0  0  0
    3.4415  -52.6556   16.1363 F   0  0  0  0  0  0  0  0  0  0  0  0
    1.1880  -52.3480   20.8082 C   0  0  0  0  0  0  0  0  0  0  0  0
    1.0563  -51.2816   21.8547 C   0  0  0  0  0  0  0  0  0  0  0  0
    1.0203  -51.6560   23.3068 C   0  0  0  0  0  0  0  0  0  0  0  0
    1.1159  -53.0970   23.7123 C   0  0  0  0  0  0  0  0  0  0  0  0
    1.2476  -54.1634   22.6658 C   0  0  0  0  0  0  0  0  0  0  0  0
    1.2836  -53.7890   21.2138 C   0  0  0  0  0  0  0  0  0  0  0  0
    1.0799  -53.4714   25.1644 O   0  0  0  0  0  0  0  0  0  0  0  0
   -0.2241  -53.4755   25.9058 C   0  0  0  0  0  0  0  0  0  0  0  0
   -0.7926  -52.1904   26.4304 C   0  0  0  0  0  0  0  0  0  0  0  0
   -0.2025  -51.5533   27.6535 O   0  0  0  0  0  0  0  0  0  0  0  0
   -1.9512  -51.5423   25.7319 N   0  0  0  0  0  0  0  0  0  0  0  0
   -2.5196  -50.2572   26.2566 C   0  0  0  0  0  0  0  0  0  0  0  0
   -2.5412  -52.1794   24.5089 C   0  0  0  0  0  0  0  0  0  0  0  0
    0.2656  -51.3483   14.0703 C   0  0  0  0  0  0  0  0  0  0  0  0
    1.3321  -50.8502   15.0000 O   0  0  0  0  0  0  0  0  0  0  0  0
   -0.9214  -50.5426   19.6719 C   0  0  0  0  0  0  0  0  0  0  0  0
   -1.2080  -49.0708   19.7115 N   0  0  0  0  0  0  0  0  0  0  0  0
   -0.2444  -48.1368   20.3817 C   0  0  0  0  0  0  0  0  0  0  0  0
   -2.4581  -48.5329   19.0807 C   0  0  0  0  0  0  0  0  0  0  0  0
  1  2  2  0
  2  3  1  0
  3 23  1  0
  3  4  2  0
  4  8  1  0
  4  5  1  0
  5  6  2  0
  6  7  1  0
  6  1  1  0
  8  9  2  0
  9 10  1  0
 10 11  2  0
 11 14  1  0
 11 12  1  0
 12 13  2  0
 13  8  1  0
 14 15  1  0
 15 16  1  0
 16 17  2  0
 16 18  1  0
 18 19  1  0
 18 20  1  0
 21 22  1  0
 22  1  1  0
 23 24  1  0
 24 25  1  0
 24 26  1  0
M  CHG  1  24   1
M  END
$$$$

     RDKit          3D

 23 25  0  0  0  0  0  0  0  0999 V2000
    1.2493  -52.2656   20.7148 C   0  0  0  0  0  0  0  0  0  0  0  0
    1.5465  -53.7058   21.0107 C   0  0  0  0  0  0  0  0  0  0  0  0
    1.4048  -54.2289   22.4093 C   0  0  0  0  0  0  0  0  0  0  0  0
    0.9658  -53.3118   23.5122 C   0  0  0  0  0  0  0  0  0  0  0  0
    0.6685  -51.8717   23.2164 C   0  0  0  0  0  0  0  0  0  0  0  0
    0.8103  -51.3485   21.8177 C   0  0  0  0  0  0  0  0  0  0  0  0
    1.3910  -51.7424   19.3162 N   0  0  0  0  0  0  0  0  0  0  0  0
   -2.1439  -49.8888   17.2381 C   0  0  0  0  0  0  0  0  0  0  0  0
   -2.3546  -50.9697   18.2566 N   0  0  0  0  0  0  0  0  0  0  0  0
   -1.1763  -51.5875   18.9493 C   0  0  0  0  0  0  0  0  0  0  0  0
    0.2127  -51.1246   18.6235 C   0  0  0  0  0  0  0  0  0  0  0  0
    0.4235  -50.0437   17.6050 C   0  0  0  0  0  0  0  0  0  0  0  0
   -0.7548  -49.4259   16.9123 C   0  0  0  0  0  0  0  0  0  0  0  0
   -0.5441  -48.3450   15.8938 Cl  0  0  0  0  0  0  0  0  0  0  0  0
   -3.9062  -49.9270   15.3296 C   0  0  0  0  0  0  0  0  0  0  0  0
   -3.3222  -49.2710   16.5454 O   0  0  0  0  0  0  0  0  0  0  0  0
    0.2295  -50.9546   24.3193 C   0  0  0  0  0  0  0  0  0  0  0  0
    0.3048  -51.4087   25.7469 N   0  0  0  0  0  0  0  0  0  0  0  0
   -0.8995  -52.0131   26.4062 C   0  0  0  0  0  0  0  0  0  0  0  0
   -0.8242  -52.4672   27.8338 C   0  0  0  0  0  0  0  0  0  0  0  0
    0.4552  -52.3169   28.6021 O   0  0  0  0  0  0  0  0  0  0  0  0
    1.6594  -51.7125   27.9429 C   0  0  0  0  0  0  0  0  0  0  0  0
    1.5842  -51.2584   26.5152 C   0  0  0  0  0  0  0  0  0  0  0  0
  1  2  2  0
  2  3  1  0
  3  4  2  0
  4  5  1  0
  5 17  1  0
  5  6  2  0
  6  1  1  0
  7  1  1  0
  8  9  2  0
  9 10  1  0
 10 11  2  0
 11  7  1  0
 11 12  1  0
 12 13  2  0
 13 14  1  0
 13  8  1  0
 15 16  1  0
 16  8  1  0
 17 18  1  0
 18 19  1  0
 19 20  1  0
 20 21  1  0
 21 22  1  0
 22 23  1  0
 23 18  1  0
M  CHG  1  18   1
M  END
$$$$

     RDKit          3D

 20 22  0  0  0  0  0  0  0  0999 V2000
    0.0428  -49.9104   21.7005 N   0  0  0  0  0  0  0  0  0  0  0  0
   -0.3189  -50.7437   22.8942 C   0  0  0  0  0  0  0  0  0  0  0  0
   -1.6983  -51.3203   23.0161 C   0  0  0  0  0  0  0  0  0  0  0  0
   -2.0601  -52.1536   24.2097 C   0  0  0  0  0  0  0  0  0  0  0  0
   -1.0424  -52.4103   25.2815 C   0  0  0  0  0  0  0  0  0  0  0  0
    0.3369  -51.8337   25.1596 C   0  0  0  0  0  0  0  0  0  0  0  0
    0.6987  -51.0004   23.9659 C   0  0  0  0  0  0  0  0  0  0  0  0
    1.3545  -52.0904   26.2312 N   0  0  0  0  0  0  0  0  0  0  0  0
    0.9928  -52.9237   27.4248 C   0  0  0  0  0  0  0  0  0  0  0  0
   -0.3866  -53.5002   27.5468 C   0  0  0  0  0  0  0  0  0  0  0  0
   -1.4042  -53.2436   26.4751 O   0  0  0  0  0  0  0  0  0  0  0  0
    1.4875  -51.8920   17.9274 C   0  0  0  0  0  0  0  0  0  0  0  0
    1.6453  -52.5870   19.2474 C   0  0  0  0  0  0  0  0  0  0  0  0
    1.1637  -51.9265   20.5050 C   0  0  0  0  0  0  0  0  0  0  0  0
    0.5244  -50.5710   20.4428 C   0  0  0  0  0  0  0  0  0  0  0  0
    0.3666  -49.8760   19.1230 C   0  0  0  0  0  0  0  0  0  0  0  0
    0.8481  -50.5365   17.8652 C   0  0  0  0  0  0  0  0  0  0  0  0
    0.6903  -49.8416   16.5454 Cl  0  0  0  0  0  0  0  0  0  0  0  0
    3.3652  -52.3057   16.1802 C   0  0  0  0  0  0  0  0  0  0  0  0
    1.9690  -52.5526   16.6697 O   0  0  0  0  0  0  0  0  0  0  0  0
  1  2  1  0
  2  3  2  0
  3  4  1  0
  4  5  2  0
  5  6  1  0
  6  7  2  0
  6  8  1  0
  7  2  1  0
  8  9  1  0
  9 10  1  0
 10 11  1  0
 11  5  1  0
 12 13  2  0
 13 14  1  0
 14 15  2  0
 15  1  1  0
 15 16  1  0
 16 17  2  0
 17 18  1  0
 17 12  1  0
 19 20  1  0
 20 12  1  0
M  END
$$$$

     RDKit          3D

 21 23  0  0  0  0  0  0  0  0999 V2000
    0.0049  -52.0398   21.5061 C   0  0  0  0  0  0  0  0  0  0  0  0
    1.1162  -53.0445   21.5802 C   0  0  0  0  0  0  0  0  0  0  0  0
    2.0102  -53.2627   20.3957 C   0  0  0  0  0  0  0  0  0  0  0  0
    1.7929  -52.4762   19.1370 C   0  0  0  0  0  0  0  0  0  0  0  0
    0.6816  -51.4715   19.0629 C   0  0  0  0  0  0  0  0  0  0  0  0
   -0.2124  -51.2533   20.2474 C   0  0  0  0  0  0  0  0  0  0  0  0
    0.4643  -50.6851   17.8042 N   0  0  0  0  0  0  0  0  0  0  0  0
    1.3582  -50.9033   16.6197 C   0  0  0  0  0  0  0  0  0  0  0  0
    2.4696  -51.9080   16.6938 C   0  0  0  0  0  0  0  0  0  0  0  0
    3.3636  -52.1262   15.5093 C   0  0  0  0  0  0  0  0  0  0  0  0
    2.6869  -52.6945   17.9525 O   0  0  0  0  0  0  0  0  0  0  0  0
   -0.8891  -51.8215   22.6906 N   0  0  0  0  0  0  0  0  0  0  0  0
   -0.1853  -52.9578   26.4274 C   0  0  0  0  0  0  0  0  0  0  0  0
   -0.7557  -52.9216   25.0405 C   0  0  0  0  0  0  0  0  0  0  0  0
   -0.3188  -51.8578   24.0775 C   0  0  0  0  0  0  0  0  0  0  0  0
    0.6884  -50.8301   24.5013 C   0  0  0  0  0  0  0  0  0  0  0  0
    1.2587  -50.8664   25.8882 C   0  0  0  0  0  0  0  0  0  0  0  0
    0.8218  -51.9302   26.8512 C   0  0  0  0  0  0  0  0  0  0  0  0
    1.3921  -51.9664   28.2381 Cl  0  0  0  0  0  0  0  0  0  0  0  0
    0.0686  -55.3531   27.4012 C   0  0  0  0  0  0  0  0  0  0  0  0
   -0.6222  -54.0216   27.3905 O   0  0  0  0  0  0  0  0  0  0  0  0
  1  2  2  0
  2  3  1  0
  3  4  2  0
  4  5  1  0
  5  6  2  0
  5  7  1  0
  6  1  1  0
  7  8  1  0
  8  9  1  0
  9 10  1  0
  9 11  1  0
 11  4  1  0
 12  1  1  0
 13 14  2  0
 14 15  1  0
 15 12  1  0
 15 16  2  0
 16 17  1  0
 17 18  2  0
 18 19  1  0
 18 13  1  0
 20 21  1  0
 21 13  1  0
M  END
$$$$

     RDKit          3D

 22 23  0  0  0  0  0  0  0  0999 V2000
    4.2784  -51.3669   14.2891 C   0  0  0  0  0  0  0  0  0  0  0  0
    4.6054  -52.1002   15.5561 C   0  0  0  0  0  0  0  0  0  0  0  0
    3.5074  -52.4966   16.4981 C   0  0  0  0  0  0  0  0  0  0  0  0
    2.0824  -52.1597   16.1730 C   0  0  0  0  0  0  0  0  0  0  0  0
    1.7553  -51.4264   14.9060 C   0  0  0  0  0  0  0  0  0  0  0  0
    2.8534  -51.0300   13.9641 C   0  0  0  0  0  0  0  0  0  0  0  0
    7.0360  -51.5784   11.4430 C   0  0  0  0  0  0  0  0  0  0  0  0
    5.9380  -51.9748   12.3849 N   0  0  0  0  0  0  0  0  0  0  0  0
    5.4016  -53.3755   12.3645 C   0  0  0  0  0  0  0  0  0  0  0  0
    5.3764  -50.9705   13.3472 C   0  0  0  0  0  0  0  0  0  0  0  0
    5.9128  -49.5699   13.3675 O   0  0  0  0  0  0  0  0  0  0  0  0
    0.9844  -52.5561   17.1150 N   0  0  0  0  0  0  0  0  0  0  0  0
    1.0942  -52.2293   18.5748 C   0  0  0  0  0  0  0  0  0  0  0  0
    1.5542  -53.2765   19.5452 N   0  0  0  0  0  0  0  0  0  0  0  0
    1.6640  -52.9497   21.0051 C   0  0  0  0  0  0  0  0  0  0  0  0
    1.3137  -51.5757   21.4945 C   0  0  0  0  0  0  0  0  0  0  0  0
    1.4235  -51.2489   22.9544 F   0  0  0  0  0  0  0  0  0  0  0  0
    0.8537  -50.5286   20.5241 C   0  0  0  0  0  0  0  0  0  0  0  0
    0.7439  -50.8553   19.0642 C   0  0  0  0  0  0  0  0  0  0  0  0
    0.2838  -49.8081   18.0938 Cl  0  0  0  0  0  0  0  0  0  0  0  0
    0.3302  -51.0895   14.5809 C   0  0  0  0  0  0  0  0  0  0  0  0
   -1.0948  -50.7526   14.2559 N   0  0  0  0  0  0  0  0  0  0  0  0
  1  2  2  0
  2  3  1  0
  3  4  2  0
  4 12  1  0
  4  5  1  0
  5 21  1  0
  5  6  2  0
  6  1  1  0
  7  8  1  0
  8  9  1  0
  8 10  1  0
 10 11  2  0
 10  1  1  0
 12 13  1  0
 13 14  2  0
 14 15  1  0
 15 16  2  0
 16 17  1  0
 16 18  1  0
 18 19  2  0
 19 20  1  0
 19 13  1  0
 21 22  3  0
M  END
$$$$

     RDKit          3D

 21 22  0  0  0  0  0  0  0  0999 V2000
   -0.2882  -51.0166   20.2375 C   0  0  0  0  0  0  0  0  0  0  0  0
    0.5642  -51.1314   19.0086 C   0  0  0  0  0  0  0  0  0  0  0  0
    1.5830  -52.2272   18.9022 C   0  0  0  0  0  0  0  0  0  0  0  0
    1.7493  -53.2082   20.0246 C   0  0  0  0  0  0  0  0  0  0  0  0
    0.8969  -53.0934   21.2534 C   0  0  0  0  0  0  0  0  0  0  0  0
   -0.1219  -51.9976   21.3599 C   0  0  0  0  0  0  0  0  0  0  0  0
    2.4354  -52.3419   17.6732 C   0  0  0  0  0  0  0  0  0  0  0  0
    3.2879  -52.4567   16.4444 N   0  0  0  0  0  0  0  0  0  0  0  0
   -0.9743  -51.8829   22.5888 N   0  0  0  0  0  0  0  0  0  0  0  0
   -0.3330  -51.6919   23.9313 C   0  0  0  0  0  0  0  0  0  0  0  0
    1.1200  -51.3307   24.0238 N   0  0  0  0  0  0  0  0  0  0  0  0
    1.7613  -51.1397   25.3663 C   0  0  0  0  0  0  0  0  0  0  0  0
    0.9497  -51.3099   26.6162 C   0  0  0  0  0  0  0  0  0  0  0  0
    1.5910  -51.1189   27.9587 F   0  0  0  0  0  0  0  0  0  0  0  0
   -0.5032  -51.6710   26.5237 C   0  0  0  0  0  0  0  0  0  0  0  0
   -1.1446  -51.8620   25.1812 C   0  0  0  0  0  0  0  0  0  0  0  0
   -2.5975  -52.2232   25.0887 Cl  0  0  0  0  0  0  0  0  0  0  0  0
   -1.3069  -49.9208   20.3439 C   0  0  0  0  0  0  0  0  0  0  0  0
   -1.5060  -48.3880   22.4322 C   0  0  0  0  0  0  0  0  0  0  0  0
   -0.9656  -48.6460   21.0569 N   0  0  0  0  0  0  0  0  0  0  0  0
   -0.0836  -47.6292   20.3947 C   0  0  0  0  0  0  0  0  0  0  0  0
  1  2  2  0
  2  3  1  0
  3  7  1  0
  3  4  2  0
  4  5  1  0
  5  6  2  0
  6  9  1  0
  6  1  1  0
  7  8  3  0
  9 10  1  0
 10 11  2  0
 11 12  1  0
 12 13  2  0
 13 14  1  0
 13 15  1  0
 15 16  2  0
 16 17  1  0
 16 10  1  0
 18  1  1  0
 19 20  1  0
 20 21  1  0
 20 18  1  0
M  CHG  1  20   1
M  END
$$$$

     RDKit          3D

 21 22  0  0  0  0  0  0  0  0999 V2000
    1.6502  -52.3289   19.4275 C   0  0  0  0  0  0  0  0  0  0  0  0
    1.3915  -53.4857   20.3467 C   0  0  0  0  0  0  0  0  0  0  0  0
    0.5622  -53.2916   21.5814 C   0  0  0  0  0  0  0  0  0  0  0  0
   -0.0085  -51.9408   21.8969 C   0  0  0  0  0  0  0  0  0  0  0  0
    0.2501  -50.7841   20.9777 C   0  0  0  0  0  0  0  0  0  0  0  0
    1.0795  -50.9781   19.7430 C   0  0  0  0  0  0  0  0  0  0  0  0
    2.8538  -52.1397   15.6506 C   0  0  0  0  0  0  0  0  0  0  0  0
    2.0245  -51.9457   16.8853 C   0  0  0  0  0  0  0  0  0  0  0  0
    0.7400  -51.1743   16.8124 O   0  0  0  0  0  0  0  0  0  0  0  0
    2.4795  -52.5230   18.1928 N   0  0  0  0  0  0  0  0  0  0  0  0
   -0.8379  -51.7468   23.1317 N   0  0  0  0  0  0  0  0  0  0  0  0
   -0.1735  -51.6394   24.4722 C   0  0  0  0  0  0  0  0  0  0  0  0
    1.2920  -51.3320   24.5605 C   0  0  0  0  0  0  0  0  0  0  0  0
    1.9564  -51.2247   25.9011 C   0  0  0  0  0  0  0  0  0  0  0  0
    1.1552  -51.4247   27.1533 C   0  0  0  0  0  0  0  0  0  0  0  0
    1.8196  -51.3174   28.4939 F   0  0  0  0  0  0  0  0  0  0  0  0
   -0.3103  -51.7322   27.0650 C   0  0  0  0  0  0  0  0  0  0  0  0
   -0.9746  -51.8395   25.7245 C   0  0  0  0  0  0  0  0  0  0  0  0
   -2.4401  -52.1469   25.6362 Cl  0  0  0  0  0  0  0  0  0  0  0  0
   -0.3206  -49.4332   21.2932 C   0  0  0  0  0  0  0  0  0  0  0  0
   -0.8912  -48.0824   21.6087 N   0  0  0  0  0  0  0  0  0  0  0  0
  1  2  2  0
  2  3  1  0
  3  4  2  0
  4 11  1  0
  4  5  1  0
  5 20  1  0
  5  6  2  0
  6  1  1  0
  7  8  1  0
  8  9  2  0
  8 10  1  0
 10  1  1  0
 11 12  1  0
 12 13  2  0
 13 14  1  0
 14 15  2  0
 15 16  1  0
 15 17  1  0
 17 18  2  0
 18 19  1  0
 18 12  1  0
 20 21  3  0
M  END
$$$$
