
 OpenBabel09092411003D

 35 37  0  0  0  0  0  0  0  0999 V2000
    0.8112  -51.8210   22.5051 C   0  0  0  0  0  0  0  0  0  0  0  0
    0.8538  -51.2688   21.1110 C   0  0  0  0  0  0  0  0  0  0  0  0
    1.2471  -52.1537   19.9655 C   0  0  0  0  0  0  0  0  0  0  0  0
    1.5978  -53.5909   20.2141 N   0  0  0  0  0  0  0  0  0  0  0  0
    1.5551  -54.1430   21.6081 C   0  0  0  0  0  0  0  0  0  0  0  0
    1.1618  -53.2581   22.7536 N   0  0  0  0  0  0  0  0  0  0  0  0
    1.2898  -51.6016   18.5715 N   0  0  0  0  0  0  0  0  0  0  0  0
    2.0892  -52.3006   17.5122 C   0  0  0  0  0  0  0  0  0  0  0  0
    2.1319  -51.7484   16.1181 C   0  0  0  0  0  0  0  0  0  0  0  0
    1.3752  -50.4973   15.7835 O   0  0  0  0  0  0  0  0  0  0  0  0
    0.5757  -49.7983   16.8429 C   0  0  0  0  0  0  0  0  0  0  0  0
    0.5330  -50.3505   18.2369 C   0  0  0  0  0  0  0  0  0  0  0  0
    0.4179  -50.9361   23.6506 N   0  0  0  0  0  0  0  0  0  0  0  0
   -1.6837  -52.3781   25.2330 F   0  0  0  0  0  0  0  0  0  0  0  0
   -0.3490  -52.0843   25.8514 C   0  0  0  0  0  0  0  0  0  0  0  0
   -0.0651  -52.5115   27.2609 C   0  0  0  0  0  0  0  0  0  0  0  0
   -1.1159  -53.2326   28.0522 Cl  0  0  0  0  0  0  0  0  0  0  0  0
    1.2695  -52.2178   27.8793 C   0  0  0  0  0  0  0  0  0  0  0  0
    2.3203  -51.4968   27.0881 C   0  0  0  0  0  0  0  0  0  0  0  0
    2.0364  -51.0695   25.6786 C   0  0  0  0  0  0  0  0  0  0  0  0
    0.7018  -51.3633   25.0602 C   0  0  0  0  0  0  0  0  0  0  0  0
    0.6125  -50.2801   20.9400 H   0  0  0  0  0  0  0  0  0  0  0  0
    1.7963  -55.1317   21.7791 H   0  0  0  0  0  0  0  0  0  0  0  0
    1.7017  -53.2953   17.4387 H   0  0  0  0  0  0  0  0  0  0  0  0
    3.0978  -52.1895   17.8518 H   0  0  0  0  0  0  0  0  0  0  0  0
    1.7620  -52.5157   15.4705 H   0  0  0  0  0  0  0  0  0  0  0  0
    3.1545  -51.4562   16.0005 H   0  0  0  0  0  0  0  0  0  0  0  0
   -0.4351  -49.7624   16.4938 H   0  0  0  0  0  0  0  0  0  0  0  0
    1.0879  -48.8666   16.9630 H   0  0  0  0  0  0  0  0  0  0  0  0
   -0.4954  -50.5421   18.4619 H   0  0  0  0  0  0  0  0  0  0  0  0
    1.0312  -49.5999   18.8142 H   0  0  0  0  0  0  0  0  0  0  0  0
   -0.0266  -50.0749   23.4773 H   0  0  0  0  0  0  0  0  0  0  0  0
    1.4648  -52.5118   28.8491 H   0  0  0  0  0  0  0  0  0  0  0  0
    3.2386  -51.2947   27.5135 H   0  0  0  0  0  0  0  0  0  0  0  0
    2.7593  -50.5734   25.1343 H   0  0  0  0  0  0  0  0  0  0  0  0
  1  2  2  0  0  0  0
  2  3  1  0  0  0  0
  2 22  1  0  0  0  0
  3  7  1  0  0  0  0
  3  4  2  0  0  0  0
  4  5  1  0  0  0  0
  5  6  2  0  0  0  0
  5 23  1  0  0  0  0
  6  1  1  0  0  0  0
  7  8  1  0  0  0  0
  8  9  1  0  0  0  0
  8 24  1  0  0  0  0
  8 25  1  0  0  0  0
  9 10  1  0  0  0  0
  9 26  1  0  0  0  0
  9 27  1  0  0  0  0
 10 11  1  0  0  0  0
 11 12  1  0  0  0  0
 11 28  1  0  0  0  0
 11 29  1  0  0  0  0
 12  7  1  0  0  0  0
 12 30  1  0  0  0  0
 12 31  1  0  0  0  0
 13  1  1  0  0  0  0
 13 32  1  0  0  0  0
 14 15  1  0  0  0  0
 15 16  2  0  0  0  0
 16 17  1  0  0  0  0
 16 18  1  0  0  0  0
 18 19  2  0  0  0  0
 18 33  1  0  0  0  0
 19 20  1  0  0  0  0
 19 34  1  0  0  0  0
 20 21  2  0  0  0  0
 20 35  1  0  0  0  0
 21 13  1  0  0  0  0
 21 15  1  0  0  0  0
M  END
>  <minimizedAffinity>
-7.28466

$$$$

 OpenBabel09092411003D

 40 42  0  0  0  0  0  0  0  0999 V2000
    1.1758  -52.1234   19.9513 C   0  0  0  0  0  0  0  0  0  0  0  0
    0.7894  -51.2461   21.1050 C   0  0  0  0  0  0  0  0  0  0  0  0
    0.7514  -51.8085   22.4951 C   0  0  0  0  0  0  0  0  0  0  0  0
    1.0999  -53.2482   22.7315 N   0  0  0  0  0  0  0  0  0  0  0  0
    1.4863  -54.1254   21.5778 C   0  0  0  0  0  0  0  0  0  0  0  0
    1.5242  -53.5630   20.1877 N   0  0  0  0  0  0  0  0  0  0  0  0
    1.3275  -49.8738   14.3911 C   0  0  0  0  0  0  0  0  0  0  0  0
    1.2896  -50.4362   15.7811 N   0  3  0  0  0  0  0  0  0  0  0  0
    0.5181  -49.7289   16.8556 C   0  0  0  0  0  0  0  0  0  0  0  0
    0.4802  -50.2912   18.2456 C   0  0  0  0  0  0  0  0  0  0  0  0
    1.2137  -51.5610   18.5613 N   0  0  0  0  0  0  0  0  0  0  0  0
    1.9852  -52.2683   17.4868 C   0  0  0  0  0  0  0  0  0  0  0  0
    2.0231  -51.7059   16.0968 C   0  0  0  0  0  0  0  0  0  0  0  0
    0.3650  -50.9311   23.6488 N   0  0  0  0  0  0  0  0  0  0  0  0
    0.6554  -51.3686   25.0539 C   0  0  0  0  0  0  0  0  0  0  0  0
    1.9929  -51.0791   25.6682 C   0  0  0  0  0  0  0  0  0  0  0  0
    2.2833  -51.5166   27.0734 C   0  0  0  0  0  0  0  0  0  0  0  0
    1.2363  -52.2436   27.8641 C   0  0  0  0  0  0  0  0  0  0  0  0
   -0.1012  -52.5331   27.2497 C   0  0  0  0  0  0  0  0  0  0  0  0
   -1.1482  -53.2600   28.0404 Cl  0  0  0  0  0  0  0  0  0  0  0  0
   -0.3916  -52.0956   25.8447 C   0  0  0  0  0  0  0  0  0  0  0  0
   -1.7290  -52.3851   25.2303 F   0  0  0  0  0  0  0  0  0  0  0  0
    0.5497  -50.2556   20.9424 H   0  0  0  0  0  0  0  0  0  0  0  0
    1.7261  -55.1159   21.7404 H   0  0  0  0  0  0  0  0  0  0  0  0
    0.7521  -48.9724   14.3553 H   0  0  0  0  0  0  0  0  0  0  0  0
    0.9169  -50.5865   13.7067 H   0  0  0  0  0  0  0  0  0  0  0  0
    2.3405  -49.6614   14.1198 H   0  0  0  0  0  0  0  0  0  0  0  0
    1.6805  -50.2337   14.8610 H   0  0  0  0  0  0  0  0  0  0  0  0
   -0.4958  -49.6686   16.5191 H   0  0  0  0  0  0  0  0  0  0  0  0
    1.0517  -48.8094   16.9768 H   0  0  0  0  0  0  0  0  0  0  0  0
   -0.5493  -50.4624   18.4816 H   0  0  0  0  0  0  0  0  0  0  0  0
    1.0015  -49.5561   18.8225 H   0  0  0  0  0  0  0  0  0  0  0  0
    1.5756  -53.2538   17.4102 H   0  0  0  0  0  0  0  0  0  0  0  0
    2.9999  -52.1815   17.8150 H   0  0  0  0  0  0  0  0  0  0  0  0
    1.6290  -52.4598   15.4477 H   0  0  0  0  0  0  0  0  0  0  0  0
    3.0503  -51.4347   15.9692 H   0  0  0  0  0  0  0  0  0  0  0  0
   -0.0792  -50.0681   23.4838 H   0  0  0  0  0  0  0  0  0  0  0  0
    2.7133  -50.5790   25.1242 H   0  0  0  0  0  0  0  0  0  0  0  0
    3.2034  -51.3174   27.4961 H   0  0  0  0  0  0  0  0  0  0  0  0
    1.4361  -52.5446   28.8308 H   0  0  0  0  0  0  0  0  0  0  0  0
  1  2  2  0  0  0  0
  2  3  1  0  0  0  0
  2 23  1  0  0  0  0
  3 14  1  0  0  0  0
  3  4  2  0  0  0  0
  4  5  1  0  0  0  0
  5  6  2  0  0  0  0
  5 24  1  0  0  0  0
  6  1  1  0  0  0  0
  7  8  1  0  0  0  0
  7 25  1  0  0  0  0
  7 26  1  0  0  0  0
  7 27  1  0  0  0  0
  8  9  1  0  0  0  0
  8 28  1  0  0  0  0
  9 10  1  0  0  0  0
  9 29  1  0  0  0  0
  9 30  1  0  0  0  0
 10 11  1  0  0  0  0
 10 31  1  0  0  0  0
 10 32  1  0  0  0  0
 11  1  1  0  0  0  0
 11 12  1  0  0  0  0
 12 13  1  0  0  0  0
 12 33  1  0  0  0  0
 12 34  1  0  0  0  0
 13  8  1  0  0  0  0
 13 35  1  0  0  0  0
 13 36  1  0  0  0  0
 14 15  1  0  0  0  0
 14 37  1  0  0  0  0
 15 16  2  0  0  0  0
 16 17  1  0  0  0  0
 16 38  1  0  0  0  0
 17 18  2  0  0  0  0
 17 39  1  0  0  0  0
 18 19  1  0  0  0  0
 18 40  1  0  0  0  0
 19 20  1  0  0  0  0
 19 21  2  0  0  0  0
 21 22  1  0  0  0  0
 21 15  1  0  0  0  0
M  CHG  1   8   1
M  END
>  <minimizedAffinity>
-7.59439

$$$$

 OpenBabel09092411003D

 41 43  0  0  0  0  0  0  0  0999 V2000
    1.2269  -52.2148   19.9823 C   0  0  0  0  0  0  0  0  0  0  0  0
    0.8579  -51.3127   21.1225 C   0  0  0  0  0  0  0  0  0  0  0  0
    0.8133  -51.8522   22.5215 C   0  0  0  0  0  0  0  0  0  0  0  0
    1.1376  -53.2936   22.7802 N   0  0  0  0  0  0  0  0  0  0  0  0
    1.5066  -54.1956   21.6400 C   0  0  0  0  0  0  0  0  0  0  0  0
    1.5512  -53.6562   20.2410 N   0  0  0  0  0  0  0  0  0  0  0  0
    2.3023  -50.6927   13.3659 C   0  0  0  0  0  0  0  0  0  0  0  0
    1.4054  -50.0571   14.3866 C   0  0  0  0  0  0  0  0  0  0  0  0
    0.5532  -48.8821   14.0082 O   0  0  0  0  0  0  0  0  0  0  0  0
    1.3608  -50.5965   15.7855 N   0  0  0  0  0  0  0  0  0  0  0  0
    2.2130  -51.7715   16.1638 C   0  0  0  0  0  0  0  0  0  0  0  0
    2.1683  -52.3109   17.5628 C   0  0  0  0  0  0  0  0  0  0  0  0
    1.2715  -51.6754   18.5834 N   0  0  0  0  0  0  0  0  0  0  0  0
    0.4193  -50.5004   18.2051 C   0  0  0  0  0  0  0  0  0  0  0  0
    0.4640  -49.9610   16.8061 C   0  0  0  0  0  0  0  0  0  0  0  0
    0.4443  -50.9500   23.6617 N   0  0  0  0  0  0  0  0  0  0  0  0
    0.7090  -51.3799   25.0742 C   0  0  0  0  0  0  0  0  0  0  0  0
    2.0309  -51.0768   25.7151 C   0  0  0  0  0  0  0  0  0  0  0  0
    2.2957  -51.5068   27.1277 C   0  0  0  0  0  0  0  0  0  0  0  0
    1.2386  -52.2398   27.8992 C   0  0  0  0  0  0  0  0  0  0  0  0
   -0.0833  -52.5429   27.2582 C   0  0  0  0  0  0  0  0  0  0  0  0
   -1.1404  -53.2758   28.0297 Cl  0  0  0  0  0  0  0  0  0  0  0  0
   -0.3481  -52.1130   25.8458 C   0  0  0  0  0  0  0  0  0  0  0  0
   -1.6699  -52.4161   25.2048 F   0  0  0  0  0  0  0  0  0  0  0  0
    0.6347  -50.3210   20.9445 H   0  0  0  0  0  0  0  0  0  0  0  0
    1.7298  -55.1873   21.8180 H   0  0  0  0  0  0  0  0  0  0  0  0
    2.2020  -50.1781   12.4331 H   0  0  0  0  0  0  0  0  0  0  0  0
    2.0269  -51.7188   13.2386 H   0  0  0  0  0  0  0  0  0  0  0  0
    3.3178  -50.6345   13.6979 H   0  0  0  0  0  0  0  0  0  0  0  0
    3.2279  -51.4912   15.9731 H   0  0  0  0  0  0  0  0  0  0  0  0
    1.8051  -52.5695   15.5793 H   0  0  0  0  0  0  0  0  0  0  0  0
    3.1648  -52.2527   17.9482 H   0  0  0  0  0  0  0  0  0  0  0  0
    1.7456  -53.2858   17.4371 H   0  0  0  0  0  0  0  0  0  0  0  0
    0.6954  -49.6965   18.8551 H   0  0  0  0  0  0  0  0  0  0  0  0
   -0.5769  -50.8816   18.2900 H   0  0  0  0  0  0  0  0  0  0  0  0
    0.7585  -48.9350   16.8799 H   0  0  0  0  0  0  0  0  0  0  0  0
   -0.5175  -50.1654   16.4323 H   0  0  0  0  0  0  0  0  0  0  0  0
    0.0284  -50.0757   23.4830 H   0  0  0  0  0  0  0  0  0  0  0  0
    2.7582  -50.5725   25.1843 H   0  0  0  0  0  0  0  0  0  0  0  0
    3.2051  -51.2983   27.5687 H   0  0  0  0  0  0  0  0  0  0  0  0
    1.4207  -52.5356   28.8710 H   0  0  0  0  0  0  0  0  0  0  0  0
  1  2  2  0  0  0  0
  2  3  1  0  0  0  0
  2 25  1  0  0  0  0
  3 16  1  0  0  0  0
  3  4  2  0  0  0  0
  4  5  1  0  0  0  0
  5  6  2  0  0  0  0
  5 26  1  0  0  0  0
  6  1  1  0  0  0  0
  7  8  1  0  0  0  0
  7 27  1  0  0  0  0
  7 28  1  0  0  0  0
  7 29  1  0  0  0  0
  8  9  2  0  0  0  0
  8 10  1  0  0  0  0
 10 11  1  0  0  0  0
 11 12  1  0  0  0  0
 11 30  1  0  0  0  0
 11 31  1  0  0  0  0
 12 13  1  0  0  0  0
 12 32  1  0  0  0  0
 12 33  1  0  0  0  0
 13  1  1  0  0  0  0
 13 14  1  0  0  0  0
 14 15  1  0  0  0  0
 14 34  1  0  0  0  0
 14 35  1  0  0  0  0
 15 10  1  0  0  0  0
 15 36  1  0  0  0  0
 15 37  1  0  0  0  0
 16 17  1  0  0  0  0
 16 38  1  0  0  0  0
 17 18  2  0  0  0  0
 18 19  1  0  0  0  0
 18 39  1  0  0  0  0
 19 20  2  0  0  0  0
 19 40  1  0  0  0  0
 20 21  1  0  0  0  0
 20 41  1  0  0  0  0
 21 22  1  0  0  0  0
 21 23  2  0  0  0  0
 23 24  1  0  0  0  0
 23 17  1  0  0  0  0
M  END
>  <minimizedAffinity>
-7.70267

$$$$

 OpenBabel09092411003D

 42 44  0  0  0  0  0  0  0  0999 V2000
   -0.7667  -51.6455   26.2327 C   0  0  0  0  0  0  0  0  0  0  0  0
   -0.1040  -51.3437   27.5442 N   0  0  0  0  0  0  0  0  0  0  0  0
    1.3746  -51.5416   27.7005 C   0  0  0  0  0  0  0  0  0  0  0  0
    2.1906  -52.0413   26.5453 C   0  0  0  0  0  0  0  0  0  0  0  0
    1.5281  -52.3431   25.2339 N   0  0  0  0  0  0  0  0  0  0  0  0
    0.0494  -52.1452   25.0776 C   0  0  0  0  0  0  0  0  0  0  0  0
   -4.3772  -46.1991   24.0996 C   0  0  0  0  0  0  0  0  0  0  0  0
   -3.8442  -47.5112   24.5938 N   0  3  0  0  0  0  0  0  0  0  0  0
   -4.7899  -48.6254   24.9317 C   0  0  0  0  0  0  0  0  0  0  0  0
   -4.2569  -49.9376   25.4259 C   0  0  0  0  0  0  0  0  0  0  0  0
   -2.7783  -50.1355   25.5822 N   0  0  0  0  0  0  0  0  0  0  0  0
   -2.2453  -51.4476   26.0764 C   0  0  0  0  0  0  0  0  0  0  0  0
   -3.1909  -52.5618   26.4143 O   0  0  0  0  0  0  0  0  0  0  0  0
   -1.8326  -49.0213   25.2443 C   0  0  0  0  0  0  0  0  0  0  0  0
   -2.3656  -47.7091   24.7501 C   0  0  0  0  0  0  0  0  0  0  0  0
   -0.6132  -52.4470   23.7661 N   0  0  0  0  0  0  0  0  0  0  0  0
   -0.0678  -51.8606   22.4978 C   0  0  0  0  0  0  0  0  0  0  0  0
   -0.3851  -50.4413   22.1306 C   0  0  0  0  0  0  0  0  0  0  0  0
    0.1602  -49.8549   20.8623 C   0  0  0  0  0  0  0  0  0  0  0  0
    1.0229  -50.6877   19.9611 C   0  0  0  0  0  0  0  0  0  0  0  0
    1.3402  -52.1070   20.3283 C   0  0  0  0  0  0  0  0  0  0  0  0
    2.2030  -52.9399   19.4272 Cl  0  0  0  0  0  0  0  0  0  0  0  0
    0.7949  -52.6934   21.5967 C   0  0  0  0  0  0  0  0  0  0  0  0
    1.1122  -54.1128   21.9638 F   0  0  0  0  0  0  0  0  0  0  0  0
    1.8305  -51.3340   28.6028 H   0  0  0  0  0  0  0  0  0  0  0  0
    3.2079  -52.1775   26.6528 H   0  0  0  0  0  0  0  0  0  0  0  0
   -5.4453  -46.2429   24.0526 H   0  0  0  0  0  0  0  0  0  0  0  0
   -3.9852  -45.9995   23.1242 H   0  0  0  0  0  0  0  0  0  0  0  0
   -4.0814  -45.4189   24.7694 H   0  0  0  0  0  0  0  0  0  0  0  0
   -2.8282  -47.6009   24.5959 H   0  0  0  0  0  0  0  0  0  0  0  0
   -5.3508  -48.8342   24.0447 H   0  0  0  0  0  0  0  0  0  0  0  0
   -5.3271  -48.2448   25.7752 H   0  0  0  0  0  0  0  0  0  0  0  0
   -4.5983  -50.6868   24.7424 H   0  0  0  0  0  0  0  0  0  0  0  0
   -4.6193  -49.9873   26.4314 H   0  0  0  0  0  0  0  0  0  0  0  0
   -1.1755  -49.3931   24.4860 H   0  0  0  0  0  0  0  0  0  0  0  0
   -1.4000  -48.7705   26.1903 H   0  0  0  0  0  0  0  0  0  0  0  0
   -1.9280  -47.5405   23.7883 H   0  0  0  0  0  0  0  0  0  0  0  0
   -2.1078  -47.0280   25.5340 H   0  0  0  0  0  0  0  0  0  0  0  0
   -1.4060  -53.0300   23.7378 H   0  0  0  0  0  0  0  0  0  0  0  0
   -0.9786  -49.8683   22.7506 H   0  0  0  0  0  0  0  0  0  0  0  0
   -0.0582  -48.8784   20.6097 H   0  0  0  0  0  0  0  0  0  0  0  0
    1.3981  -50.2842   19.0885 H   0  0  0  0  0  0  0  0  0  0  0  0
  1  2  2  0  0  0  0
  2  3  1  0  0  0  0
  3  4  2  0  0  0  0
  3 25  1  0  0  0  0
  4  5  1  0  0  0  0
  4 26  1  0  0  0  0
  5  6  2  0  0  0  0
  6 16  1  0  0  0  0
  6  1  1  0  0  0  0
  7  8  1  0  0  0  0
  7 27  1  0  0  0  0
  7 28  1  0  0  0  0
  7 29  1  0  0  0  0
  8  9  1  0  0  0  0
  8 30  1  0  0  0  0
  9 10  1  0  0  0  0
  9 31  1  0  0  0  0
  9 32  1  0  0  0  0
 10 11  1  0  0  0  0
 10 33  1  0  0  0  0
 10 34  1  0  0  0  0
 11 12  1  0  0  0  0
 11 14  1  0  0  0  0
 12 13  2  0  0  0  0
 12  1  1  0  0  0  0
 14 15  1  0  0  0  0
 14 35  1  0  0  0  0
 14 36  1  0  0  0  0
 15  8  1  0  0  0  0
 15 37  1  0  0  0  0
 15 38  1  0  0  0  0
 16 17  1  0  0  0  0
 16 39  1  0  0  0  0
 17 18  2  0  0  0  0
 18 19  1  0  0  0  0
 18 40  1  0  0  0  0
 19 20  2  0  0  0  0
 19 41  1  0  0  0  0
 20 21  1  0  0  0  0
 20 42  1  0  0  0  0
 21 22  1  0  0  0  0
 21 23  2  0  0  0  0
 23 24  1  0  0  0  0
 23 17  1  0  0  0  0
M  CHG  1   8   1
M  END
>  <minimizedAffinity>
-7.39928

$$$$

 OpenBabel09092411003D

 44 46  0  0  0  0  0  0  0  0999 V2000
    0.9980  -51.4582   21.1789 C   0  0  0  0  0  0  0  0  0  0  0  0
    0.9587  -51.9278   22.6029 C   0  0  0  0  0  0  0  0  0  0  0  0
    1.1902  -53.3751   22.9219 N   0  0  0  0  0  0  0  0  0  0  0  0
    1.4609  -54.3527   21.8170 C   0  0  0  0  0  0  0  0  0  0  0  0
    1.5003  -53.8830   20.3930 N   0  0  0  0  0  0  0  0  0  0  0  0
    1.2688  -52.4358   20.0740 C   0  0  0  0  0  0  0  0  0  0  0  0
    1.3081  -51.9661   18.6499 N   0  0  0  0  0  0  0  0  0  0  0  0
    0.1669  -51.1688   18.0913 C   0  0  0  0  0  0  0  0  0  0  0  0
    0.2062  -50.6992   16.6673 C   0  0  0  0  0  0  0  0  0  0  0  0
    1.3867  -51.0268   15.8018 N   0  3  0  0  0  0  0  0  0  0  0  0
    1.4260  -50.5572   14.3778 C   0  0  0  0  0  0  0  0  0  0  0  0
    2.5279  -51.8241   16.3603 C   0  0  0  0  0  0  0  0  0  0  0  0
    2.4886  -52.2938   17.7844 C   0  0  0  0  0  0  0  0  0  0  0  0
   -0.5893  -49.4044   21.0686 C   0  0  0  0  0  0  0  0  0  0  0  0
    0.7666  -50.0109   20.8598 O   0  0  0  0  0  0  0  0  0  0  0  0
    0.6879  -50.9502   23.7079 N   0  0  0  0  0  0  0  0  0  0  0  0
    0.8802  -51.3619   25.1374 C   0  0  0  0  0  0  0  0  0  0  0  0
    2.1915  -51.1096   25.8207 C   0  0  0  0  0  0  0  0  0  0  0  0
    2.3838  -51.5214   27.2502 C   0  0  0  0  0  0  0  0  0  0  0  0
    1.2648  -52.1854   27.9964 C   0  0  0  0  0  0  0  0  0  0  0  0
   -0.0465  -52.4377   27.3131 C   0  0  0  0  0  0  0  0  0  0  0  0
   -1.1655  -53.1017   28.0593 Cl  0  0  0  0  0  0  0  0  0  0  0  0
   -0.2388  -52.0260   25.8837 C   0  0  0  0  0  0  0  0  0  0  0  0
   -1.5501  -52.2783   25.2004 F   0  0  0  0  0  0  0  0  0  0  0  0
    1.6200  -55.3484   22.0365 H   0  0  0  0  0  0  0  0  0  0  0  0
    0.0722  -50.2954   18.7021 H   0  0  0  0  0  0  0  0  0  0  0  0
   -0.6460  -51.8646   18.0985 H   0  0  0  0  0  0  0  0  0  0  0  0
    0.1276  -49.6324   16.6916 H   0  0  0  0  0  0  0  0  0  0  0  0
   -0.5937  -51.2410   16.2075 H   0  0  0  0  0  0  0  0  0  0  0  0
    1.2591  -50.1018   16.2122 H   0  0  0  0  0  0  0  0  0  0  0  0
    1.5595  -51.3973   13.7287 H   0  0  0  0  0  0  0  0  0  0  0  0
    2.2400  -49.8746   14.2497 H   0  0  0  0  0  0  0  0  0  0  0  0
    0.5066  -50.0646   14.1392 H   0  0  0  0  0  0  0  0  0  0  0  0
    3.4055  -51.2206   16.2582 H   0  0  0  0  0  0  0  0  0  0  0  0
    2.4893  -52.7347   15.7998 H   0  0  0  0  0  0  0  0  0  0  0  0
    3.3501  -51.8837   18.2688 H   0  0  0  0  0  0  0  0  0  0  0  0
    2.4370  -53.3585   17.6909 H   0  0  0  0  0  0  0  0  0  0  0  0
   -0.5650  -48.3718   20.7894 H   0  0  0  0  0  0  0  0  0  0  0  0
   -0.8628  -49.4887   22.0996 H   0  0  0  0  0  0  0  0  0  0  0  0
   -1.3074  -49.9200   20.4658 H   0  0  0  0  0  0  0  0  0  0  0  0
    0.3839  -50.0383   23.4949 H   0  0  0  0  0  0  0  0  0  0  0  0
    2.9614  -50.6527   25.3073 H   0  0  0  0  0  0  0  0  0  0  0  0
    3.2860  -51.3479   27.7203 H   0  0  0  0  0  0  0  0  0  0  0  0
    1.3971  -52.4687   28.9799 H   0  0  0  0  0  0  0  0  0  0  0  0
  1  2  2  0  0  0  0
  2 16  1  0  0  0  0
  2  3  1  0  0  0  0
  3  4  2  0  0  0  0
  4  5  1  0  0  0  0
  4 25  1  0  0  0  0
  5  6  2  0  0  0  0
  6  7  1  0  0  0  0
  6  1  1  0  0  0  0
  7  8  1  0  0  0  0
  8  9  1  0  0  0  0
  8 26  1  0  0  0  0
  8 27  1  0  0  0  0
  9 10  1  0  0  0  0
  9 28  1  0  0  0  0
  9 29  1  0  0  0  0
 10 11  1  0  0  0  0
 10 12  1  0  0  0  0
 10 30  1  0  0  0  0
 11 31  1  0  0  0  0
 11 32  1  0  0  0  0
 11 33  1  0  0  0  0
 12 13  1  0  0  0  0
 12 34  1  0  0  0  0
 12 35  1  0  0  0  0
 13  7  1  0  0  0  0
 13 36  1  0  0  0  0
 13 37  1  0  0  0  0
 14 15  1  0  0  0  0
 14 38  1  0  0  0  0
 14 39  1  0  0  0  0
 14 40  1  0  0  0  0
 15  1  1  0  0  0  0
 16 17  1  0  0  0  0
 16 41  1  0  0  0  0
 17 18  2  0  0  0  0
 18 19  1  0  0  0  0
 18 42  1  0  0  0  0
 19 20  2  0  0  0  0
 19 43  1  0  0  0  0
 20 21  1  0  0  0  0
 20 44  1  0  0  0  0
 21 22  1  0  0  0  0
 21 23  2  0  0  0  0
 23 24  1  0  0  0  0
 23 17  1  0  0  0  0
M  CHG  1  10   1
M  END
>  <minimizedAffinity>
-7.37289

$$$$

 OpenBabel09092411003D

 41 43  0  0  0  0  0  0  0  0999 V2000
   -0.0543  -50.9860   23.3115 N   0  0  0  0  0  0  0  0  0  0  0  0
   -0.4923  -48.1643   18.7185 C   0  0  0  0  0  0  0  0  0  0  0  0
    0.0564  -49.5181   19.0591 N   0  3  1  0  0  0  0  0  0  0  0  0
    0.6421  -50.3826   17.9823 C   0  0  0  0  0  0  0  0  0  0  0  0
    1.1908  -51.7365   18.3230 C   0  0  0  0  0  0  0  0  0  0  0  0
    1.1539  -52.2258   19.7404 C   0  0  0  0  0  0  0  0  0  0  0  0
    1.7026  -53.5796   20.0810 N   0  0  0  0  0  0  0  0  0  0  0  0
    1.6657  -54.0689   21.4985 C   0  0  0  0  0  0  0  0  0  0  0  0
    1.0800  -53.2044   22.5754 N   0  0  0  0  0  0  0  0  0  0  0  0
    0.5313  -51.8505   22.2347 C   0  0  0  0  0  0  0  0  0  0  0  0
    0.5682  -51.3612   20.8172 C   0  0  0  0  0  0  0  0  0  0  0  0
    0.0195  -50.0074   20.4766 C   0  0  0  0  0  0  0  0  0  0  0  0
   -0.0156  -51.4390   24.7410 C   0  0  0  0  0  0  0  0  0  0  0  0
   -1.2275  -52.0688   25.3613 C   0  0  0  0  0  0  0  0  0  0  0  0
   -1.1887  -52.5217   26.7907 C   0  0  0  0  0  0  0  0  0  0  0  0
    0.0618  -52.3448   27.5999 C   0  0  0  0  0  0  0  0  0  0  0  0
    1.2737  -51.7150   26.9796 C   0  0  0  0  0  0  0  0  0  0  0  0
    1.2349  -51.2621   25.5502 C   0  0  0  0  0  0  0  0  0  0  0  0
    2.4468  -50.6323   24.9299 F   0  0  0  0  0  0  0  0  0  0  0  0
    2.5243  -51.5382   27.7888 C   0  0  0  0  0  0  0  0  0  0  0  0
    3.8630  -51.8103   27.1695 N   0  3  0  0  0  0  0  0  0  0  0  0
   -0.4641  -50.1213   23.0801 H   0  0  0  0  0  0  0  0  0  0  0  0
   -0.3811  -47.9881   17.6690 H   0  0  0  0  0  0  0  0  0  0  0  0
    0.0421  -47.4152   19.2645 H   0  0  0  0  0  0  0  0  0  0  0  0
   -1.5293  -48.1239   18.9790 H   0  0  0  0  0  0  0  0  0  0  0  0
   -0.8379  -49.8371   18.6864 H   0  0  0  0  0  0  0  0  0  0  0  0
    1.4430  -49.8267   17.5414 H   0  0  0  0  0  0  0  0  0  0  0  0
   -0.2003  -50.6076   17.3621 H   0  0  0  0  0  0  0  0  0  0  0  0
    2.2177  -51.7382   18.0223 H   0  0  0  0  0  0  0  0  0  0  0  0
    0.5282  -52.4054   17.8146 H   0  0  0  0  0  0  0  0  0  0  0  0
    2.0433  -55.0003   21.7328 H   0  0  0  0  0  0  0  0  0  0  0  0
    0.5640  -49.2970   21.0629 H   0  0  0  0  0  0  0  0  0  0  0  0
   -1.0271  -50.1093   20.6744 H   0  0  0  0  0  0  0  0  0  0  0  0
   -2.0879  -52.1905   24.8046 H   0  0  0  0  0  0  0  0  0  0  0  0
   -2.0224  -52.9551   27.2175 H   0  0  0  0  0  0  0  0  0  0  0  0
    0.0884  -52.6564   28.5834 H   0  0  0  0  0  0  0  0  0  0  0  0
    2.4383  -52.1863   28.6358 H   0  0  0  0  0  0  0  0  0  0  0  0
    2.5494  -50.4850   27.9759 H   0  0  0  0  0  0  0  0  0  0  0  0
    3.9406  -52.8034   26.9501 H   0  0  0  0  0  0  0  0  0  0  0  0
    4.6000  -51.5481   27.8240 H   0  0  0  0  0  0  0  0  0  0  0  0
    3.9587  -51.2645   26.3132 H   0  0  0  0  0  0  0  0  0  0  0  0
  1 13  1  0  0  0  0
  1 22  1  0  0  0  0
  2  3  1  0  0  0  0
  2 23  1  0  0  0  0
  2 24  1  0  0  0  0
  2 25  1  0  0  0  0
  3  4  1  0  0  0  0
  3 26  1  6  0  0  0
  4  5  1  0  0  0  0
  4 27  1  0  0  0  0
  4 28  1  0  0  0  0
  5  6  1  0  0  0  0
  5 29  1  0  0  0  0
  5 30  1  0  0  0  0
  6  7  2  0  0  0  0
  7  8  1  0  0  0  0
  8  9  2  0  0  0  0
  8 31  1  0  0  0  0
  9 10  1  0  0  0  0
 10  1  1  0  0  0  0
 10 11  2  0  0  0  0
 11 12  1  0  0  0  0
 11  6  1  0  0  0  0
 12  3  1  0  0  0  0
 12 32  1  0  0  0  0
 12 33  1  0  0  0  0
 13 14  2  0  0  0  0
 14 15  1  0  0  0  0
 14 34  1  0  0  0  0
 15 16  2  0  0  0  0
 15 35  1  0  0  0  0
 16 17  1  0  0  0  0
 16 36  1  0  0  0  0
 17 20  1  0  0  0  0
 17 18  2  0  0  0  0
 18 19  1  0  0  0  0
 18 13  1  0  0  0  0
 20 21  1  0  0  0  0
 20 37  1  0  0  0  0
 20 38  1  0  0  0  0
 21 39  1  0  0  0  0
 21 40  1  0  0  0  0
 21 41  1  0  0  0  0
M  CHG  2   3   1  21   1
M  END
>  <minimizedAffinity>
-7.90953

$$$$

 OpenBabel09092411003D

 31 32  0  0  0  0  0  0  0  0999 V2000
    1.0610  -52.0988   19.9799 C   0  0  0  0  0  0  0  0  0  0  0  0
    1.3896  -53.5431   20.2165 C   0  0  0  0  0  0  0  0  0  0  0  0
    1.3803  -54.0957   21.6110 C   0  0  0  0  0  0  0  0  0  0  0  0
    1.0424  -53.2040   22.7689 C   0  0  0  0  0  0  0  0  0  0  0  0
    0.7139  -51.7597   22.5323 C   0  0  0  0  0  0  0  0  0  0  0  0
    0.7232  -51.2071   21.1378 C   0  0  0  0  0  0  0  0  0  0  0  0
    1.4899  -51.8654   16.0415 C   0  0  0  0  0  0  0  0  0  0  0  0
    1.4806  -52.4180   17.4359 N   0  0  0  0  0  0  0  0  0  0  0  0
    1.0703  -51.5461   18.5855 C   0  0  0  0  0  0  0  0  0  0  0  0
    0.6694  -50.1217   18.3405 O   0  0  0  0  0  0  0  0  0  0  0  0
    0.3760  -50.8679   23.6902 N   0  0  0  0  0  0  0  0  0  0  0  0
    0.6546  -51.3216   25.0925 C   0  0  0  0  0  0  0  0  0  0  0  0
    2.0019  -51.0790   25.7055 C   0  0  0  0  0  0  0  0  0  0  0  0
    2.2805  -51.5327   27.1079 C   0  0  0  0  0  0  0  0  0  0  0  0
    1.2118  -52.2290   27.8972 C   0  0  0  0  0  0  0  0  0  0  0  0
   -0.1355  -52.4717   27.2841 C   0  0  0  0  0  0  0  0  0  0  0  0
   -1.2042  -53.1680   28.0733 Cl  0  0  0  0  0  0  0  0  0  0  0  0
   -0.4141  -52.0180   25.8818 C   0  0  0  0  0  0  0  0  0  0  0  0
   -1.7614  -52.2607   25.2687 F   0  0  0  0  0  0  0  0  0  0  0  0
    1.6221  -54.1566   19.4199 H   0  0  0  0  0  0  0  0  0  0  0  0
    1.6064  -55.0894   21.7738 H   0  0  0  0  0  0  0  0  0  0  0  0
    1.0359  -53.5842   23.7283 H   0  0  0  0  0  0  0  0  0  0  0  0
    0.4972  -50.2134   20.9750 H   0  0  0  0  0  0  0  0  0  0  0  0
    1.8071  -52.6257   15.3587 H   0  0  0  0  0  0  0  0  0  0  0  0
    2.1646  -51.0364   15.9909 H   0  0  0  0  0  0  0  0  0  0  0  0
    0.5047  -51.5399   15.7803 H   0  0  0  0  0  0  0  0  0  0  0  0
    1.7438  -53.3530   17.5966 H   0  0  0  0  0  0  0  0  0  0  0  0
   -0.0286  -49.9848   23.5297 H   0  0  0  0  0  0  0  0  0  0  0  0
    2.7372  -50.6000   25.1625 H   0  0  0  0  0  0  0  0  0  0  0  0
    3.2075  -51.3658   27.5297 H   0  0  0  0  0  0  0  0  0  0  0  0
    1.4035  -52.5411   28.8620 H   0  0  0  0  0  0  0  0  0  0  0  0
  1  2  2  0  0  0  0
  2  3  1  0  0  0  0
  2 20  1  0  0  0  0
  3  4  2  0  0  0  0
  3 21  1  0  0  0  0
  4  5  1  0  0  0  0
  4 22  1  0  0  0  0
  5 11  1  0  0  0  0
  5  6  2  0  0  0  0
  6  1  1  0  0  0  0
  6 23  1  0  0  0  0
  7  8  1  0  0  0  0
  7 24  1  0  0  0  0
  7 25  1  0  0  0  0
  7 26  1  0  0  0  0
  8  9  1  0  0  0  0
  8 27  1  0  0  0  0
  9 10  2  0  0  0  0
  9  1  1  0  0  0  0
 11 12  1  0  0  0  0
 11 28  1  0  0  0  0
 12 13  2  0  0  0  0
 13 14  1  0  0  0  0
 13 29  1  0  0  0  0
 14 15  2  0  0  0  0
 14 30  1  0  0  0  0
 15 16  1  0  0  0  0
 15 31  1  0  0  0  0
 16 17  1  0  0  0  0
 16 18  2  0  0  0  0
 18 19  1  0  0  0  0
 18 12  1  0  0  0  0
M  END
>  <minimizedAffinity>
-7.36015

$$$$

 OpenBabel09092411003D

 34 36  0  0  0  0  0  0  0  0999 V2000
    2.0080  -51.7333   28.1606 C   0  0  0  0  0  0  0  0  0  0  0  0
    1.0115  -52.0460   27.0840 C   0  0  0  0  0  0  0  0  0  0  0  0
    1.4840  -52.4231   25.7113 N   0  0  0  0  0  0  0  0  0  0  0  0
    0.4875  -52.7358   24.6346 C   0  0  0  0  0  0  0  0  0  0  0  0
   -0.9815  -52.6714   24.9307 C   0  0  0  0  0  0  0  0  0  0  0  0
   -1.4540  -52.2944   26.3035 C   0  0  0  0  0  0  0  0  0  0  0  0
   -0.4575  -51.9816   27.3801 N   0  0  0  0  0  0  0  0  0  0  0  0
    0.9601  -53.1129   23.2618 N   0  0  0  0  0  0  0  0  0  0  0  0
    0.8054  -52.1478   22.1240 C   0  0  0  0  0  0  0  0  0  0  0  0
    0.2374  -50.7816   22.3712 C   0  0  0  0  0  0  0  0  0  0  0  0
    0.0827  -49.8165   21.2334 C   0  0  0  0  0  0  0  0  0  0  0  0
    0.4961  -50.2175   19.8483 C   0  0  0  0  0  0  0  0  0  0  0  0
    1.0641  -51.5836   19.6011 C   0  0  0  0  0  0  0  0  0  0  0  0
    1.4775  -51.9847   18.2161 Cl  0  0  0  0  0  0  0  0  0  0  0  0
    1.2188  -52.5487   20.7390 C   0  0  0  0  0  0  0  0  0  0  0  0
    1.7868  -53.9149   20.4917 F   0  0  0  0  0  0  0  0  0  0  0  0
   -2.9232  -52.2300   26.5997 N   0  0  0  0  0  0  0  0  0  0  0  0
   -3.8498  -51.5306   25.6498 C   0  0  0  0  0  0  0  0  0  0  0  0
   -4.3839  -50.2622   25.0534 C   0  0  0  0  0  0  0  0  0  0  0  0
   -4.9207  -51.5878   24.6011 C   0  0  0  0  0  0  0  0  0  0  0  0
    2.9989  -51.8304   27.7686 H   0  0  0  0  0  0  0  0  0  0  0  0
    1.8784  -52.4147   28.9754 H   0  0  0  0  0  0  0  0  0  0  0  0
    1.8576  -50.7318   28.5059 H   0  0  0  0  0  0  0  0  0  0  0  0
   -1.6671  -52.8865   24.1900 H   0  0  0  0  0  0  0  0  0  0  0  0
    1.3718  -53.9938   23.1076 H   0  0  0  0  0  0  0  0  0  0  0  0
   -0.0469  -50.5057   23.3241 H   0  0  0  0  0  0  0  0  0  0  0  0
   -0.3081  -48.8766   21.4035 H   0  0  0  0  0  0  0  0  0  0  0  0
    0.3897  -49.5535   19.0655 H   0  0  0  0  0  0  0  0  0  0  0  0
   -3.2792  -52.6468   27.4175 H   0  0  0  0  0  0  0  0  0  0  0  0
   -3.1887  -52.0294   26.3273 H   0  0  0  0  0  0  0  0  0  0  0  0
   -3.7715  -49.6806   24.3964 H   0  0  0  0  0  0  0  0  0  0  0  0
   -4.8156  -49.3650   25.4453 H   0  0  0  0  0  0  0  0  0  0  0  0
   -4.6913  -51.9518   23.6214 H   0  0  0  0  0  0  0  0  0  0  0  0
   -5.8939  -52.0279   24.5367 H   0  0  0  0  0  0  0  0  0  0  0  0
  1  2  1  0  0  0  0
  1 21  1  0  0  0  0
  1 22  1  0  0  0  0
  1 23  1  0  0  0  0
  2  3  2  0  0  0  0
  3  4  1  0  0  0  0
  4  8  1  0  0  0  0
  4  5  2  0  0  0  0
  5  6  1  0  0  0  0
  5 24  1  0  0  0  0
  6 17  1  0  0  0  0
  6  7  2  0  0  0  0
  7  2  1  0  0  0  0
  8  9  1  0  0  0  0
  8 25  1  0  0  0  0
  9 10  2  0  0  0  0
 10 11  1  0  0  0  0
 10 26  1  0  0  0  0
 11 12  2  0  0  0  0
 11 27  1  0  0  0  0
 12 13  1  0  0  0  0
 12 28  1  0  0  0  0
 13 14  1  0  0  0  0
 13 15  2  0  0  0  0
 15 16  1  0  0  0  0
 15  9  1  0  0  0  0
 17 18  1  0  0  0  0
 17 29  1  0  0  0  0
 18 19  1  0  0  0  0
 18 30  1  0  0  0  0
 19 20  1  0  0  0  0
 19 31  1  0  0  0  0
 19 32  1  0  0  0  0
 20 18  1  0  0  0  0
 20 33  1  0  0  0  0
 20 34  1  0  0  0  0
M  END
>  <minimizedAffinity>
-7.05554

$$$$

 OpenBabel09092411003D

 46 48  0  0  0  0  0  0  0  0999 V2000
   -3.1931  -48.3201   25.0809 C   0  0  0  0  0  0  0  0  0  0  0  0
   -2.4080  -47.7046   23.9608 O   0  0  0  0  0  0  0  0  0  0  0  0
   -2.7063  -49.5793   25.7347 N   0  0  0  0  0  0  0  0  0  0  0  0
   -3.4914  -50.1947   26.8548 C   0  0  0  0  0  0  0  0  0  0  0  0
   -3.0046  -51.4539   27.5086 C   0  0  0  0  0  0  0  0  0  0  0  0
   -1.7326  -52.0977   27.0422 C   0  0  0  0  0  0  0  0  0  0  0  0
   -1.2458  -53.3569   27.6959 N   0  0  0  0  0  0  0  0  0  0  0  0
    0.0262  -54.0007   27.2295 C   0  0  0  0  0  0  0  0  0  0  0  0
    0.8114  -53.3853   26.1093 N   0  0  0  0  0  0  0  0  0  0  0  0
    0.3245  -52.1261   25.4555 C   0  0  0  0  0  0  0  0  0  0  0  0
   -0.9475  -51.4823   25.9220 C   0  0  0  0  0  0  0  0  0  0  0  0
   -1.4343  -50.2231   25.2683 C   0  0  0  0  0  0  0  0  0  0  0  0
    1.1097  -51.5107   24.3354 N   0  0  0  0  0  0  0  0  0  0  0  0
    0.9120  -51.9915   22.9283 C   0  0  0  0  0  0  0  0  0  0  0  0
    1.2689  -53.4011   22.5603 C   0  0  0  0  0  0  0  0  0  0  0  0
    1.0712  -53.8818   21.1533 C   0  0  0  0  0  0  0  0  0  0  0  0
    0.5166  -52.9529   20.1143 C   0  0  0  0  0  0  0  0  0  0  0  0
    0.1597  -51.5433   20.4823 C   0  0  0  0  0  0  0  0  0  0  0  0
   -0.3950  -50.6144   19.4433 Cl  0  0  0  0  0  0  0  0  0  0  0  0
    0.3574  -51.0626   21.8893 C   0  0  0  0  0  0  0  0  0  0  0  0
    0.0004  -49.6528   22.2574 F   0  0  0  0  0  0  0  0  0  0  0  0
   -4.4651  -47.6763   25.5473 O   0  0  0  0  0  0  0  0  0  0  0  0
   -5.7826  -48.7932   24.3158 C   0  0  0  0  0  0  0  0  0  0  0  0
   -5.5387  -47.3331   24.5576 C   0  0  0  0  0  0  0  0  0  0  0  0
   -5.2949  -45.8729   24.7995 C   0  0  0  0  0  0  0  0  0  0  0  0
   -6.6124  -46.9899   23.5679 C   0  0  0  0  0  0  0  0  0  0  0  0
   -4.4673  -50.4042   26.4693 H   0  0  0  0  0  0  0  0  0  0  0  0
   -3.4168  -49.4673   27.6360 H   0  0  0  0  0  0  0  0  0  0  0  0
   -3.7800  -52.1820   27.3923 H   0  0  0  0  0  0  0  0  0  0  0  0
   -2.7704  -51.1394   28.5042 H   0  0  0  0  0  0  0  0  0  0  0  0
    0.3611  -54.8670   27.6793 H   0  0  0  0  0  0  0  0  0  0  0  0
   -1.5629  -50.4443   24.2293 H   0  0  0  0  0  0  0  0  0  0  0  0
   -0.6852  -49.5051   25.5293 H   0  0  0  0  0  0  0  0  0  0  0  0
    1.7548  -50.7912   24.5237 H   0  0  0  0  0  0  0  0  0  0  0  0
    1.6505  -54.0402   23.2751 H   0  0  0  0  0  0  0  0  0  0  0  0
    1.3168  -54.8516   20.9001 H   0  0  0  0  0  0  0  0  0  0  0  0
    0.3806  -53.2837   19.1463 H   0  0  0  0  0  0  0  0  0  0  0  0
   -6.5626  -48.9095   23.5927 H   0  0  0  0  0  0  0  0  0  0  0  0
   -6.0729  -49.2629   25.2323 H   0  0  0  0  0  0  0  0  0  0  0  0
   -4.8862  -49.2487   23.9499 H   0  0  0  0  0  0  0  0  0  0  0  0
   -5.9590  -45.2949   24.1914 H   0  0  0  0  0  0  0  0  0  0  0  0
   -4.2825  -45.6340   24.5486 H   0  0  0  0  0  0  0  0  0  0  0  0
   -5.4693  -45.6483   25.8310 H   0  0  0  0  0  0  0  0  0  0  0  0
   -6.1632  -46.6717   22.6504 H   0  0  0  0  0  0  0  0  0  0  0  0
   -7.2199  -46.2012   23.9599 H   0  0  0  0  0  0  0  0  0  0  0  0
   -7.2199  -47.8520   23.3875 H   0  0  0  0  0  0  0  0  0  0  0  0
  1  2  2  0  0  0  0
  1  3  1  0  0  0  0
  3  4  1  0  0  0  0
  4  5  1  0  0  0  0
  4 27  1  0  0  0  0
  4 28  1  0  0  0  0
  5  6  1  0  0  0  0
  5 29  1  0  0  0  0
  5 30  1  0  0  0  0
  6  7  2  0  0  0  0
  7  8  1  0  0  0  0
  8  9  2  0  0  0  0
  8 31  1  0  0  0  0
  9 10  1  0  0  0  0
 10 13  1  0  0  0  0
 10 11  2  0  0  0  0
 11 12  1  0  0  0  0
 11  6  1  0  0  0  0
 12  3  1  0  0  0  0
 12 32  1  0  0  0  0
 12 33  1  0  0  0  0
 13 14  1  0  0  0  0
 13 34  1  0  0  0  0
 14 15  2  0  0  0  0
 15 16  1  0  0  0  0
 15 35  1  0  0  0  0
 16 17  2  0  0  0  0
 16 36  1  0  0  0  0
 17 18  1  0  0  0  0
 17 37  1  0  0  0  0
 18 19  1  0  0  0  0
 18 20  2  0  0  0  0
 20 21  1  0  0  0  0
 20 14  1  0  0  0  0
 22  1  1  0  0  0  0
 23 24  1  0  0  0  0
 23 38  1  0  0  0  0
 23 39  1  0  0  0  0
 23 40  1  0  0  0  0
 24 25  1  0  0  0  0
 24 26  1  0  0  0  0
 24 22  1  0  0  0  0
 25 41  1  0  0  0  0
 25 42  1  0  0  0  0
 25 43  1  0  0  0  0
 26 44  1  0  0  0  0
 26 45  1  0  0  0  0
 26 46  1  0  0  0  0
M  END
>  <minimizedAffinity>
-7.26262

$$$$

 OpenBabel09092411003D

 57 59  0  0  0  0  0  0  0  0999 V2000
   -1.2893  -52.1341   26.4382 C   0  0  0  0  0  0  0  0  0  0  0  0
   -0.7545  -52.8891   25.2575 C   0  0  0  0  0  0  0  0  0  0  0  0
    0.7239  -52.9447   25.0099 C   0  0  0  0  0  0  0  0  0  0  0  0
    1.6675  -52.2454   25.9429 N   0  0  0  0  0  0  0  0  0  0  0  0
    1.1327  -51.4904   27.1236 C   0  0  0  0  0  0  0  0  0  0  0  0
   -0.3456  -51.4348   27.3712 N   0  0  0  0  0  0  0  0  0  0  0  0
   -2.7676  -52.0785   26.6859 N   0  0  0  0  0  0  0  0  0  0  0  0
   -4.5173  -48.7005   25.5555 C   0  0  0  0  0  0  0  0  0  0  0  0
   -5.3266  -49.1779   24.3863 C   0  0  0  0  0  0  0  0  0  0  0  0
   -5.2830  -50.6222   23.9837 C   0  0  0  0  0  0  0  0  0  0  0  0
   -4.4300  -51.5890   24.7501 C   0  0  0  0  0  0  0  0  0  0  0  0
   -3.6207  -51.1116   25.9193 C   0  0  0  0  0  0  0  0  0  0  0  0
   -3.6643  -49.6673   26.3220 C   0  0  0  0  0  0  0  0  0  0  0  0
   -2.8549  -49.1899   27.4912 F   0  0  0  0  0  0  0  0  0  0  0  0
   -5.3629  -46.8348   27.1537 C   0  0  0  0  0  0  0  0  0  0  0  0
   -4.5610  -47.2562   25.9582 O   0  0  0  0  0  0  0  0  0  0  0  0
    1.2587  -53.6997   23.8292 O   0  0  0  0  0  0  0  0  0  0  0  0
    1.1594  -53.1094   22.4539 C   0  0  0  0  0  0  0  0  0  0  0  0
    1.2411  -53.9983   21.2484 C   0  0  0  0  0  0  0  0  0  0  0  0
    1.1419  -53.4079   19.8731 C   0  0  0  0  0  0  0  0  0  0  0  0
    0.9608  -51.9285   19.7032 N   0  0  0  0  0  0  0  0  0  0  0  0
    0.8615  -51.3382   18.3279 C   0  0  0  0  0  0  0  0  0  0  0  0
    0.6805  -49.8589   18.1580 O   0  0  0  0  0  0  0  0  0  0  0  0
    0.8791  -51.0396   20.9086 C   0  0  0  0  0  0  0  0  0  0  0  0
    0.9784  -51.6301   22.2840 C   0  0  0  0  0  0  0  0  0  0  0  0
    0.9433  -52.2271   17.1224 O   0  0  0  0  0  0  0  0  0  0  0  0
    1.8980  -51.9000   16.0127 C   0  0  0  0  0  0  0  0  0  0  0  0
    3.0374  -52.4154   16.8410 C   0  0  0  0  0  0  0  0  0  0  0  0
    0.7586  -51.3846   15.1844 C   0  0  0  0  0  0  0  0  0  0  0  0
    2.8527  -51.5729   14.9029 C   0  0  0  0  0  0  0  0  0  0  0  0
   -1.4037  -53.3703   24.6156 H   0  0  0  0  0  0  0  0  0  0  0  0
    1.7819  -51.0092   27.7655 H   0  0  0  0  0  0  0  0  0  0  0  0
   -3.1780  -52.6766   27.3516 H   0  0  0  0  0  0  0  0  0  0  0  0
   -5.9134  -48.5127   23.8589 H   0  0  0  0  0  0  0  0  0  0  0  0
   -5.8399  -50.9507   23.1794 H   0  0  0  0  0  0  0  0  0  0  0  0
   -4.3999  -52.5826   24.4730 H   0  0  0  0  0  0  0  0  0  0  0  0
   -5.2761  -45.7766   27.2864 H   0  0  0  0  0  0  0  0  0  0  0  0
   -4.9942  -47.3350   28.0248 H   0  0  0  0  0  0  0  0  0  0  0  0
   -6.3904  -47.0922   27.0027 H   0  0  0  0  0  0  0  0  0  0  0  0
    1.1309  -54.1621   22.6434 H   0  0  0  0  0  0  0  0  0  0  0  0
    0.4484  -54.7116   21.3363 H   0  0  0  0  0  0  0  0  0  0  0  0
    2.2437  -54.3703   21.2846 H   0  0  0  0  0  0  0  0  0  0  0  0
    0.3084  -53.8781   19.3945 H   0  0  0  0  0  0  0  0  0  0  0  0
    2.1120  -53.5861   19.4584 H   0  0  0  0  0  0  0  0  0  0  0  0
   -0.0627  -50.5344   20.8566 H   0  0  0  0  0  0  0  0  0  0  0  0
    1.7630  -50.4413   20.8334 H   0  0  0  0  0  0  0  0  0  0  0  0
    0.0775  -51.3681   22.7984 H   0  0  0  0  0  0  0  0  0  0  0  0
    1.8949  -51.2255   22.6597 H   0  0  0  0  0  0  0  0  0  0  0  0
    2.6662  -52.7579   17.7843 H   0  0  0  0  0  0  0  0  0  0  0  0
    3.7463  -51.6299   17.0005 H   0  0  0  0  0  0  0  0  0  0  0  0
    3.5125  -53.2260   16.3290 H   0  0  0  0  0  0  0  0  0  0  0  0
   -0.1544  -51.4820   15.7338 H   0  0  0  0  0  0  0  0  0  0  0  0
    0.6918  -51.9501   14.2785 H   0  0  0  0  0  0  0  0  0  0  0  0
    0.9256  -50.3540   14.9500 H   0  0  0  0  0  0  0  0  0  0  0  0
    3.8460  -51.8418   15.1961 H   0  0  0  0  0  0  0  0  0  0  0  0
    2.8134  -50.5238   14.6963 H   0  0  0  0  0  0  0  0  0  0  0  0
    2.5797  -52.1198   14.0247 H   0  0  0  0  0  0  0  0  0  0  0  0
  1  2  2  0  0  0  0
  2  3  1  0  0  0  0
  2 31  1  0  0  0  0
  3 17  1  0  0  0  0
  3  4  2  0  0  0  0
  4  5  1  0  0  0  0
  5  6  2  0  0  0  0
  5 32  1  0  0  0  0
  6  1  1  0  0  0  0
  7  1  1  0  0  0  0
  7 33  1  0  0  0  0
  8  9  2  0  0  0  0
  9 10  1  0  0  0  0
  9 34  1  0  0  0  0
 10 11  2  0  0  0  0
 10 35  1  0  0  0  0
 11 12  1  0  0  0  0
 11 36  1  0  0  0  0
 12  7  1  0  0  0  0
 12 13  2  0  0  0  0
 13 14  1  0  0  0  0
 13  8  1  0  0  0  0
 15 16  1  0  0  0  0
 15 37  1  0  0  0  0
 15 38  1  0  0  0  0
 15 39  1  0  0  0  0
 16  8  1  0  0  0  0
 17 18  1  0  0  0  0
 18 19  1  0  0  0  0
 18 40  1  0  0  0  0
 19 20  1  0  0  0  0
 19 41  1  0  0  0  0
 19 42  1  0  0  0  0
 20 21  1  0  0  0  0
 20 43  1  0  0  0  0
 20 44  1  0  0  0  0
 21 22  1  0  0  0  0
 21 24  1  0  0  0  0
 22 23  2  0  0  0  0
 22 26  1  0  0  0  0
 24 25  1  0  0  0  0
 24 45  1  0  0  0  0
 24 46  1  0  0  0  0
 25 18  1  0  0  0  0
 25 47  1  0  0  0  0
 25 48  1  0  0  0  0
 26 27  1  0  0  0  0
 27 28  1  0  0  0  0
 27 29  1  0  0  0  0
 27 30  1  0  0  0  0
 28 49  1  0  0  0  0
 28 50  1  0  0  0  0
 28 51  1  0  0  0  0
 29 52  1  0  0  0  0
 29 53  1  0  0  0  0
 29 54  1  0  0  0  0
 30 55  1  0  0  0  0
 30 56  1  0  0  0  0
 30 57  1  0  0  0  0
M  END
>  <minimizedAffinity>
-7.96692

$$$$

 OpenBabel09092411003D

 49 51  0  0  0  0  0  0  0  0999 V2000
   -1.3052  -51.3800   22.7899 C   0  0  0  0  0  0  0  0  0  0  0  0
   -2.5170  -51.9675   23.4505 C   0  0  0  0  0  0  0  0  0  0  0  0
   -3.8885  -51.5792   22.9829 C   0  0  0  0  0  0  0  0  0  0  0  0
   -4.0480  -50.6036   21.8549 C   0  0  0  0  0  0  0  0  0  0  0  0
   -5.4194  -50.2154   21.3874 Cl  0  0  0  0  0  0  0  0  0  0  0  0
   -2.8362  -50.0161   21.1943 C   0  0  0  0  0  0  0  0  0  0  0  0
   -1.4648  -50.4043   21.6618 C   0  0  0  0  0  0  0  0  0  0  0  0
    0.0662  -51.7682   23.2574 O   0  0  0  0  0  0  0  0  0  0  0  0
    0.0389  -55.1072   27.2387 C   0  0  0  0  0  0  0  0  0  0  0  0
    0.2952  -53.7313   26.6989 C   0  0  0  0  0  0  0  0  0  0  0  0
    0.7940  -52.6491   27.6099 C   0  0  0  0  0  0  0  0  0  0  0  0
    1.0503  -51.2733   27.0701 C   0  0  0  0  0  0  0  0  0  0  0  0
    0.8077  -50.9796   25.6193 C   0  0  0  0  0  0  0  0  0  0  0  0
    0.3088  -52.0618   24.7083 C   0  0  0  0  0  0  0  0  0  0  0  0
    0.0526  -53.4377   25.2481 C   0  0  0  0  0  0  0  0  0  0  0  0
   -0.2530  -49.8168   21.0013 C   0  0  0  0  0  0  0  0  0  0  0  0
    0.3531  -50.4939   19.8079 N   0  3  1  0  0  0  0  0  0  0  0  0
    0.1198  -49.9411   18.4332 C   0  0  0  0  0  0  0  0  0  0  0  0
    0.7259  -50.6182   17.2397 C   0  0  0  0  0  0  0  0  0  0  0  0
    1.5653  -51.8480   17.4211 C   0  0  2  0  0  0  0  0  0  0  0  0
    2.1714  -52.5251   16.2277 N   0  3  0  0  0  0  0  0  0  0  0  0
    1.7986  -52.4008   18.7959 C   0  0  1  0  0  0  0  0  0  0  0  0
    2.6381  -53.6306   18.9773 O   0  0  0  0  0  0  0  0  0  0  0  0
    1.1925  -51.7237   19.9893 C   0  0  0  0  0  0  0  0  0  0  0  0
   -2.4072  -52.6388   24.2266 H   0  0  0  0  0  0  0  0  0  0  0  0
   -4.7223  -51.9833   23.4374 H   0  0  0  0  0  0  0  0  0  0  0  0
   -2.9460  -49.3448   20.4182 H   0  0  0  0  0  0  0  0  0  0  0  0
    0.2659  -55.1282   28.2841 H   0  0  0  0  0  0  0  0  0  0  0  0
    0.6579  -55.8129   26.7251 H   0  0  0  0  0  0  0  0  0  0  0  0
   -0.9899  -55.3620   27.0919 H   0  0  0  0  0  0  0  0  0  0  0  0
    0.9608  -52.8511   28.6081 H   0  0  0  0  0  0  0  0  0  0  0  0
    1.3936  -50.5288   27.6969 H   0  0  0  0  0  0  0  0  0  0  0  0
    0.9840  -50.0330   25.2479 H   0  0  0  0  0  0  0  0  0  0  0  0
   -0.2906  -54.1823   24.6213 H   0  0  0  0  0  0  0  0  0  0  0  0
    0.5113  -49.7649   21.7483 H   0  0  0  0  0  0  0  0  0  0  0  0
   -0.6144  -48.8921   20.6023 H   0  0  0  0  0  0  0  0  0  0  0  0
    0.2400  -51.4212   19.3983 H   0  0  0  0  0  0  0  0  0  0  0  0
    0.4872  -48.9362   18.4379 H   0  0  0  0  0  0  0  0  0  0  0  0
   -0.9311  -50.0799   18.2874 H   0  0  0  0  0  0  0  0  0  0  0  0
    1.3429  -49.8921   16.7529 H   0  0  0  0  0  0  0  0  0  0  0  0
   -0.1262  -50.9791   16.7025 H   0  0  0  0  0  0  0  0  0  0  0  0
    1.9605  -50.9324   17.8089 H   0  0  0  0  0  0  0  0  0  0  0  0
    1.6514  -53.3777   16.0200 H   0  0  0  0  0  0  0  0  0  0  0  0
    3.1437  -52.7600   16.4274 H   0  0  0  0  0  0  0  0  0  0  0  0
    2.1312  -51.8981   15.4242 H   0  0  0  0  0  0  0  0  0  0  0  0
    1.0905  -53.1910   18.6580 H   0  0  0  0  0  0  0  0  0  0  0  0
    3.5546  -53.3721   19.1621 H   0  0  0  0  0  0  0  0  0  0  0  0
    2.0017  -51.4529   20.6349 H   0  0  0  0  0  0  0  0  0  0  0  0
    0.4934  -52.4471   20.3538 H   0  0  0  0  0  0  0  0  0  0  0  0
  1  2  2  0  0  0  0
  2  3  1  0  0  0  0
  2 25  1  0  0  0  0
  3  4  2  0  0  0  0
  3 26  1  0  0  0  0
  4  5  1  0  0  0  0
  4  6  1  0  0  0  0
  6  7  2  0  0  0  0
  6 27  1  0  0  0  0
  7 16  1  0  0  0  0
  7  1  1  0  0  0  0
  8  1  1  0  0  0  0
  9 10  1  0  0  0  0
  9 28  1  0  0  0  0
  9 29  1  0  0  0  0
  9 30  1  0  0  0  0
 10 11  2  0  0  0  0
 11 12  1  0  0  0  0
 11 31  1  0  0  0  0
 12 13  2  0  0  0  0
 12 32  1  0  0  0  0
 13 14  1  0  0  0  0
 13 33  1  0  0  0  0
 14  8  1  0  0  0  0
 14 15  2  0  0  0  0
 15 10  1  0  0  0  0
 15 34  1  0  0  0  0
 16 17  1  0  0  0  0
 16 35  1  0  0  0  0
 16 36  1  0  0  0  0
 17 18  1  0  0  0  0
 17 37  1  6  0  0  0
 18 19  1  0  0  0  0
 18 38  1  0  0  0  0
 18 39  1  0  0  0  0
 19 20  1  0  0  0  0
 19 40  1  0  0  0  0
 19 41  1  0  0  0  0
 20 21  1  0  0  0  0
 20 22  1  0  0  0  0
 20 42  1  1  0  0  0
 21 43  1  0  0  0  0
 21 44  1  0  0  0  0
 21 45  1  0  0  0  0
 22 23  1  0  0  0  0
 22 24  1  0  0  0  0
 22 46  1  6  0  0  0
 23 47  1  0  0  0  0
 24 17  1  0  0  0  0
 24 48  1  0  0  0  0
 24 49  1  0  0  0  0
M  CHG  2  17   1  21   1
M  END
>  <minimizedAffinity>
-8.96707

$$$$

 OpenBabel09092411003D

 50 52  0  0  0  0  0  0  0  0999 V2000
    0.9066  -51.3440   24.9036 C   0  0  0  0  0  0  0  0  0  0  0  0
    2.2186  -50.7831   25.3663 C   0  0  0  0  0  0  0  0  0  0  0  0
    2.7876  -51.2004   26.6900 C   0  0  0  0  0  0  0  0  0  0  0  0
    2.0447  -52.1786   27.5509 C   0  0  0  0  0  0  0  0  0  0  0  0
    0.7327  -52.7395   27.0882 C   0  0  0  0  0  0  0  0  0  0  0  0
   -0.0102  -53.7177   27.9491 F   0  0  0  0  0  0  0  0  0  0  0  0
    0.1637  -52.3223   25.7646 C   0  0  0  0  0  0  0  0  0  0  0  0
    0.3375  -50.9268   23.5800 O   0  0  0  0  0  0  0  0  0  0  0  0
    1.0522  -51.7512   19.7643 C   0  0  0  0  0  0  0  0  0  0  0  0
    1.4102  -53.2052   19.8507 C   0  0  0  0  0  0  0  0  0  0  0  0
    1.4107  -53.8998   21.1801 C   0  0  0  0  0  0  0  0  0  0  0  0
    1.0531  -53.1404   22.4232 C   0  0  0  0  0  0  0  0  0  0  0  0
    0.6951  -51.6863   22.3368 C   0  0  0  0  0  0  0  0  0  0  0  0
    0.6947  -50.9917   21.0074 C   0  0  0  0  0  0  0  0  0  0  0  0
    1.5533  -51.7712   17.2150 C   0  0  0  0  0  0  0  0  0  0  0  0
    1.0518  -51.0566   18.4348 O   0  0  0  0  0  0  0  0  0  0  0  0
   -1.1483  -52.8832   25.3019 C   0  0  0  0  0  0  0  0  0  0  0  0
   -2.3247  -51.9739   25.1039 N   0  3  1  0  0  0  0  0  0  0  0  0
   -3.0815  -51.9978   23.8091 C   0  0  0  0  0  0  0  0  0  0  0  0
   -4.2580  -51.0885   23.6111 C   0  0  0  0  0  0  0  0  0  0  0  0
   -4.6777  -50.1554   24.7080 C   0  0  2  0  0  0  0  0  0  0  0  0
   -5.8541  -49.2461   24.5101 N   0  3  0  0  0  0  0  0  0  0  0  0
   -3.9208  -50.1316   26.0029 C   0  0  1  0  0  0  0  0  0  0  0  0
   -4.3405  -49.1985   27.0998 O   0  0  0  0  0  0  0  0  0  0  0  0
   -2.7444  -51.0408   26.2009 C   0  0  0  0  0  0  0  0  0  0  0  0
    2.7298  -50.1101   24.7740 H   0  0  0  0  0  0  0  0  0  0  0  0
    3.6902  -50.8145   27.0084 H   0  0  0  0  0  0  0  0  0  0  0  0
    2.4362  -52.4657   28.4616 H   0  0  0  0  0  0  0  0  0  0  0  0
    1.6562  -53.7277   18.9954 H   0  0  0  0  0  0  0  0  0  0  0  0
    1.6571  -54.9002   21.2395 H   0  0  0  0  0  0  0  0  0  0  0  0
    1.0534  -53.6183   23.3379 H   0  0  0  0  0  0  0  0  0  0  0  0
    0.4485  -49.9913   20.9480 H   0  0  0  0  0  0  0  0  0  0  0  0
    1.4775  -51.1242   16.3662 H   0  0  0  0  0  0  0  0  0  0  0  0
    0.9642  -52.6487   17.0483 H   0  0  0  0  0  0  0  0  0  0  0  0
    2.5759  -52.0504   17.3604 H   0  0  0  0  0  0  0  0  0  0  0  0
   -1.4426  -53.6163   26.0236 H   0  0  0  0  0  0  0  0  0  0  0  0
   -0.9334  -53.2265   24.3115 H   0  0  0  0  0  0  0  0  0  0  0  0
   -1.8642  -51.1918   24.6385 H   0  0  0  0  0  0  0  0  0  0  0  0
   -3.4387  -52.9979   23.6785 H   0  0  0  0  0  0  0  0  0  0  0  0
   -2.3674  -51.6340   23.1001 H   0  0  0  0  0  0  0  0  0  0  0  0
   -5.0997  -51.7142   23.3989 H   0  0  0  0  0  0  0  0  0  0  0  0
   -3.9297  -50.4265   22.8373 H   0  0  0  0  0  0  0  0  0  0  0  0
   -5.7069  -50.3080   24.4583 H   0  0  0  0  0  0  0  0  0  0  0  0
   -5.5644  -48.2789   24.6551 H   0  0  0  0  0  0  0  0  0  0  0  0
   -6.5856  -49.4859   25.1793 H   0  0  0  0  0  0  0  0  0  0  0  0
   -6.2123  -49.3552   23.5613 H   0  0  0  0  0  0  0  0  0  0  0  0
   -3.1271  -50.5421   25.4143 H   0  0  0  0  0  0  0  0  0  0  0  0
   -5.3025  -49.2465   27.2147 H   0  0  0  0  0  0  0  0  0  0  0  0
   -2.9627  -51.6468   27.0553 H   0  0  0  0  0  0  0  0  0  0  0  0
   -1.9198  -50.3632   26.2764 H   0  0  0  0  0  0  0  0  0  0  0  0
  1  2  2  0  0  0  0
  2  3  1  0  0  0  0
  2 26  1  0  0  0  0
  3  4  2  0  0  0  0
  3 27  1  0  0  0  0
  4  5  1  0  0  0  0
  4 28  1  0  0  0  0
  5  6  1  0  0  0  0
  5  7  2  0  0  0  0
  7 17  1  0  0  0  0
  7  1  1  0  0  0  0
  8  1  1  0  0  0  0
  9 10  2  0  0  0  0
 10 11  1  0  0  0  0
 10 29  1  0  0  0  0
 11 12  2  0  0  0  0
 11 30  1  0  0  0  0
 12 13  1  0  0  0  0
 12 31  1  0  0  0  0
 13  8  1  0  0  0  0
 13 14  2  0  0  0  0
 14  9  1  0  0  0  0
 14 32  1  0  0  0  0
 15 16  1  0  0  0  0
 15 33  1  0  0  0  0
 15 34  1  0  0  0  0
 15 35  1  0  0  0  0
 16  9  1  0  0  0  0
 17 18  1  0  0  0  0
 17 36  1  0  0  0  0
 17 37  1  0  0  0  0
 18 19  1  0  0  0  0
 18 38  1  6  0  0  0
 19 20  1  0  0  0  0
 19 39  1  0  0  0  0
 19 40  1  0  0  0  0
 20 21  1  0  0  0  0
 20 41  1  0  0  0  0
 20 42  1  0  0  0  0
 21 22  1  0  0  0  0
 21 23  1  0  0  0  0
 21 43  1  1  0  0  0
 22 44  1  0  0  0  0
 22 45  1  0  0  0  0
 22 46  1  0  0  0  0
 23 24  1  0  0  0  0
 23 25  1  0  0  0  0
 23 47  1  6  0  0  0
 24 48  1  0  0  0  0
 25 18  1  0  0  0  0
 25 49  1  0  0  0  0
 25 50  1  0  0  0  0
M  CHG  2  18   1  22   1
M  END
>  <minimizedAffinity>
-8.59404

$$$$

 OpenBabel09092411003D

 39 40  0  0  0  0  0  0  0  0999 V2000
   -0.0896  -51.4847   25.6544 N   0  3  2  0  0  0  0  0  0  0  0  0
   -0.8329  -50.1835   25.5885 C   0  0  0  0  0  0  0  0  0  0  0  0
   -2.0560  -49.9749   26.4315 C   0  0  0  0  0  0  0  0  0  0  0  0
   -2.5356  -51.0675   27.3405 C   0  0  1  0  0  0  0  0  0  0  0  0
   -3.7586  -50.8588   28.1835 N   0  3  0  0  0  0  0  0  0  0  0  0
   -1.7923  -52.3687   27.4064 C   0  0  2  0  0  0  0  0  0  0  0  0
   -2.2720  -53.4612   28.3153 O   0  0  0  0  0  0  0  0  0  0  0  0
   -0.5693  -52.5773   26.5634 C   0  0  0  0  0  0  0  0  0  0  0  0
    1.1334  -51.6934   24.8114 C   0  0  0  0  0  0  0  0  0  0  0  0
    0.4124  -51.7706   20.9096 C   0  0  0  0  0  0  0  0  0  0  0  0
    0.7268  -53.2023   20.5915 C   0  0  0  0  0  0  0  0  0  0  0  0
    1.1767  -54.1311   21.6800 C   0  0  0  0  0  0  0  0  0  0  0  0
    1.3123  -53.6281   23.0866 C   0  0  0  0  0  0  0  0  0  0  0  0
    0.9979  -52.1964   23.4047 C   0  0  0  0  0  0  0  0  0  0  0  0
    0.5479  -51.2676   22.3162 C   0  0  0  0  0  0  0  0  0  0  0  0
   -1.1347  -51.2573   18.8864 C   0  0  0  0  0  0  0  0  0  0  0  0
   -0.0376  -50.8418   19.8210 O   0  0  0  0  0  0  0  0  0  0  0  0
   -0.4668  -50.8314   24.9679 H   0  0  0  0  0  0  0  0  0  0  0  0
   -1.1333  -50.0506   24.5702 H   0  0  0  0  0  0  0  0  0  0  0  0
   -0.1340  -49.4803   25.9909 H   0  0  0  0  0  0  0  0  0  0  0  0
   -2.8601  -49.7562   25.7603 H   0  0  0  0  0  0  0  0  0  0  0  0
   -1.7582  -49.2032   27.1103 H   0  0  0  0  0  0  0  0  0  0  0  0
   -1.7282  -51.5685   27.8324 H   0  0  0  0  0  0  0  0  0  0  0  0
   -4.4712  -50.3771   27.6353 H   0  0  0  0  0  0  0  0  0  0  0  0
   -3.5176  -50.2948   28.9985 H   0  0  0  0  0  0  0  0  0  0  0  0
   -4.1186  -51.7626   28.4900 H   0  0  0  0  0  0  0  0  0  0  0  0
   -1.7515  -53.3179   26.9143 H   0  0  0  0  0  0  0  0  0  0  0  0
   -2.5239  -53.0819   29.1718 H   0  0  0  0  0  0  0  0  0  0  0  0
   -0.7611  -53.4303   25.9466 H   0  0  0  0  0  0  0  0  0  0  0  0
    0.2161  -52.6590   27.2855 H   0  0  0  0  0  0  0  0  0  0  0  0
    1.6344  -50.7496   24.7550 H   0  0  0  0  0  0  0  0  0  0  0  0
    1.6425  -52.4916   25.3100 H   0  0  0  0  0  0  0  0  0  0  0  0
    0.6336  -53.5483   19.6237 H   0  0  0  0  0  0  0  0  0  0  0  0
    1.3929  -55.1162   21.4611 H   0  0  0  0  0  0  0  0  0  0  0  0
    1.6219  -54.2671   23.8355 H   0  0  0  0  0  0  0  0  0  0  0  0
    0.3315  -50.2826   22.5351 H   0  0  0  0  0  0  0  0  0  0  0  0
   -1.3189  -50.4734   18.1818 H   0  0  0  0  0  0  0  0  0  0  0  0
   -2.0259  -51.4505   19.4461 H   0  0  0  0  0  0  0  0  0  0  0  0
   -0.8419  -52.1444   18.3646 H   0  0  0  0  0  0  0  0  0  0  0  0
  1  2  1  0  0  0  0
  1 18  1  6  0  0  0
  2  3  1  0  0  0  0
  2 19  1  0  0  0  0
  2 20  1  0  0  0  0
  3  4  1  0  0  0  0
  3 21  1  0  0  0  0
  3 22  1  0  0  0  0
  4  5  1  0  0  0  0
  4  6  1  0  0  0  0
  4 23  1  1  0  0  0
  5 24  1  0  0  0  0
  5 25  1  0  0  0  0
  5 26  1  0  0  0  0
  6  7  1  0  0  0  0
  6  8  1  0  0  0  0
  6 27  1  6  0  0  0
  7 28  1  0  0  0  0
  8  1  1  0  0  0  0
  8 29  1  0  0  0  0
  8 30  1  0  0  0  0
  9  1  1  0  0  0  0
  9 31  1  0  0  0  0
  9 32  1  0  0  0  0
 10 11  2  0  0  0  0
 11 12  1  0  0  0  0
 11 33  1  0  0  0  0
 12 13  2  0  0  0  0
 12 34  1  0  0  0  0
 13 14  1  0  0  0  0
 13 35  1  0  0  0  0
 14  9  1  0  0  0  0
 14 15  2  0  0  0  0
 15 10  1  0  0  0  0
 15 36  1  0  0  0  0
 16 17  1  0  0  0  0
 16 37  1  0  0  0  0
 16 38  1  0  0  0  0
 16 39  1  0  0  0  0
 17 10  1  0  0  0  0
M  CHG  2   1   1   5   1
M  END
>  <minimizedAffinity>
-7.09426

$$$$

 OpenBabel09092411003D

 48 50  0  0  0  0  0  0  0  0999 V2000
    0.4662  -52.5743   24.4366 C   0  0  0  0  0  0  0  0  0  0  0  0
    1.3979  -51.8185   25.3370 C   0  0  0  0  0  0  0  0  0  0  0  0
    0.8578  -51.0812   26.5264 C   0  0  0  0  0  0  0  0  0  0  0  0
   -0.6139  -51.0997   26.8155 C   0  0  0  0  0  0  0  0  0  0  0  0
   -1.5457  -51.8555   25.9151 C   0  0  0  0  0  0  0  0  0  0  0  0
   -1.0056  -52.5928   24.7257 C   0  0  0  0  0  0  0  0  0  0  0  0
    1.0062  -53.3116   23.2472 N   0  0  0  0  0  0  0  0  0  0  0  0
    0.6933  -50.6166   20.3508 C   0  0  0  0  0  0  0  0  0  0  0  0
    0.6802  -51.5019   19.1400 C   0  0  0  0  0  0  0  0  0  0  0  0
    0.7758  -52.9905   19.2983 C   0  0  0  0  0  0  0  0  0  0  0  0
    0.8844  -53.5937   20.6673 C   0  0  0  0  0  0  0  0  0  0  0  0
    0.8975  -52.7083   21.8780 C   0  0  0  0  0  0  0  0  0  0  0  0
    0.8020  -51.2198   21.7198 C   0  0  0  0  0  0  0  0  0  0  0  0
   -0.4733  -48.3643   20.9132 C   0  0  0  0  0  0  0  0  0  0  0  0
    0.5978  -49.1280   20.1925 O   0  0  0  0  0  0  0  0  0  0  0  0
   -3.0174  -51.8740   26.2041 C   0  0  0  0  0  0  0  0  0  0  0  0
   -3.9496  -51.0125   25.4048 N   0  3  1  0  0  0  0  0  0  0  0  0
   -4.8796  -51.4840   24.3265 C   0  0  0  0  0  0  0  0  0  0  0  0
   -5.6202  -50.2911   23.7988 C   0  0  1  0  0  0  0  0  0  0  0  0
   -6.6519  -50.3046   22.7100 N   0  3  0  0  0  0  0  0  0  0  0  0
   -5.1480  -49.0823   24.5511 C   0  0  1  0  0  0  0  0  0  0  0  0
   -5.6246  -47.6748   24.3467 O   0  0  0  0  0  0  0  0  0  0  0  0
   -4.1156  -49.5282   25.5437 C   0  0  0  0  0  0  0  0  0  0  0  0
    2.4105  -51.8058   25.1382 H   0  0  0  0  0  0  0  0  0  0  0  0
    1.4988  -50.5612   27.1458 H   0  0  0  0  0  0  0  0  0  0  0  0
   -0.9854  -50.5925   27.6339 H   0  0  0  0  0  0  0  0  0  0  0  0
   -1.6466  -53.1128   24.1063 H   0  0  0  0  0  0  0  0  0  0  0  0
    1.4319  -54.1914   23.3651 H   0  0  0  0  0  0  0  0  0  0  0  0
    0.6054  -51.0869   18.1981 H   0  0  0  0  0  0  0  0  0  0  0  0
    0.7669  -53.5996   18.4653 H   0  0  0  0  0  0  0  0  0  0  0  0
    0.9501  -54.6178   20.7762 H   0  0  0  0  0  0  0  0  0  0  0  0
    0.8111  -50.6107   22.5528 H   0  0  0  0  0  0  0  0  0  0  0  0
   -0.3862  -47.3233   20.6818 H   0  0  0  0  0  0  0  0  0  0  0  0
   -0.3636  -48.5055   21.9682 H   0  0  0  0  0  0  0  0  0  0  0  0
   -1.4341  -48.7193   20.6038 H   0  0  0  0  0  0  0  0  0  0  0  0
   -3.1346  -51.5882   27.2285 H   0  0  0  0  0  0  0  0  0  0  0  0
   -3.3086  -52.8676   25.9342 H   0  0  0  0  0  0  0  0  0  0  0  0
   -3.3151  -51.5985   25.9475 H   0  0  0  0  0  0  0  0  0  0  0  0
   -5.5727  -52.1928   24.7291 H   0  0  0  0  0  0  0  0  0  0  0  0
   -4.3283  -51.9567   23.5407 H   0  0  0  0  0  0  0  0  0  0  0  0
   -6.3560  -50.3007   23.0220 H   0  0  0  0  0  0  0  0  0  0  0  0
   -7.5574  -50.5618   23.1028 H   0  0  0  0  0  0  0  0  0  0  0  0
   -6.3852  -50.9838   21.9973 H   0  0  0  0  0  0  0  0  0  0  0  0
   -6.7146  -49.3774   22.2895 H   0  0  0  0  0  0  0  0  0  0  0  0
   -5.4877  -48.0782   24.4051 H   0  0  0  0  0  0  0  0  0  0  0  0
   -6.4648  -47.5468   24.8143 H   0  0  0  0  0  0  0  0  0  0  0  0
   -4.4389  -49.2902   26.5355 H   0  0  0  0  0  0  0  0  0  0  0  0
   -3.1856  -49.0315   25.3612 H   0  0  0  0  0  0  0  0  0  0  0  0
  1  2  2  0  0  0  0
  2  3  1  0  0  0  0
  2 24  1  0  0  0  0
  3  4  2  0  0  0  0
  3 25  1  0  0  0  0
  4  5  1  0  0  0  0
  4 26  1  0  0  0  0
  5 16  1  0  0  0  0
  5  6  2  0  0  0  0
  6  1  1  0  0  0  0
  6 27  1  0  0  0  0
  7  1  1  0  0  0  0
  7 28  1  0  0  0  0
  8  9  2  0  0  0  0
  9 10  1  0  0  0  0
  9 29  1  0  0  0  0
 10 11  2  0  0  0  0
 10 30  1  0  0  0  0
 11 12  1  0  0  0  0
 11 31  1  0  0  0  0
 12  7  1  0  0  0  0
 12 13  2  0  0  0  0
 13  8  1  0  0  0  0
 13 32  1  0  0  0  0
 14 15  1  0  0  0  0
 14 33  1  0  0  0  0
 14 34  1  0  0  0  0
 14 35  1  0  0  0  0
 15  8  1  0  0  0  0
 16 17  1  0  0  0  0
 16 36  1  0  0  0  0
 16 37  1  0  0  0  0
 17 18  1  0  0  0  0
 17 38  1  6  0  0  0
 18 19  1  0  0  0  0
 18 39  1  0  0  0  0
 18 40  1  0  0  0  0
 19 20  1  0  0  0  0
 19 21  1  0  0  0  0
 19 41  1  6  0  0  0
 20 42  1  0  0  0  0
 20 43  1  0  0  0  0
 20 44  1  0  0  0  0
 21 22  1  0  0  0  0
 21 23  1  0  0  0  0
 21 45  1  6  0  0  0
 22 46  1  0  0  0  0
 23 17  1  0  0  0  0
 23 47  1  0  0  0  0
 23 48  1  0  0  0  0
M  CHG  2  17   1  20   1
M  END
>  <minimizedAffinity>
-7.65091

$$$$

 OpenBabel09092411003D

 51 53  0  0  0  0  0  0  0  0999 V2000
   -2.3849  -50.5408   23.7637 C   0  0  0  0  0  0  0  0  0  0  0  0
   -3.6729  -50.9168   23.0931 C   0  0  0  0  0  0  0  0  0  0  0  0
   -3.8187  -50.7612   21.6083 C   0  0  0  0  0  0  0  0  0  0  0  0
   -2.6765  -50.2296   20.7942 C   0  0  0  0  0  0  0  0  0  0  0  0
   -1.3886  -49.8535   21.4648 C   0  0  0  0  0  0  0  0  0  0  0  0
   -1.2427  -50.0091   22.9495 C   0  0  0  0  0  0  0  0  0  0  0  0
   -2.2391  -50.6963   25.2484 N   0  0  0  0  0  0  0  0  0  0  0  0
    0.1593  -53.8512   25.4607 C   0  0  0  0  0  0  0  0  0  0  0  0
    0.1037  -54.1512   26.9293 C   0  0  0  0  0  0  0  0  0  0  0  0
   -0.7328  -53.2996   27.8377 C   0  0  0  0  0  0  0  0  0  0  0  0
   -1.5137  -52.1480   27.2774 C   0  0  0  0  0  0  0  0  0  0  0  0
   -1.4581  -51.8480   25.8088 C   0  0  0  0  0  0  0  0  0  0  0  0
   -0.6216  -52.6996   24.9005 C   0  0  0  0  0  0  0  0  0  0  0  0
    1.3129  -54.2315   23.1641 C   0  0  0  0  0  0  0  0  0  0  0  0
    0.9958  -54.7027   24.5524 O   0  0  0  0  0  0  0  0  0  0  0  0
   -0.2465  -49.3218   20.6506 C   0  0  0  0  0  0  0  0  0  0  0  0
    0.3519  -50.1606   19.5604 N   0  3  2  0  0  0  0  0  0  0  0  0
    0.2151  -49.7373   18.1279 C   0  0  0  0  0  0  0  0  0  0  0  0
    0.8134  -50.5760   17.0376 C   0  0  0  0  0  0  0  0  0  0  0  0
    1.5484  -51.8380   17.3799 C   0  0  1  0  0  0  0  0  0  0  0  0
    2.1467  -52.6767   16.2897 N   0  3  0  0  0  0  0  0  0  0  0  0
    1.6852  -52.2612   18.8125 C   0  0  2  0  0  0  0  0  0  0  0  0
    2.4202  -53.5232   19.1548 O   0  0  0  0  0  0  0  0  0  0  0  0
    1.0869  -51.4225   19.9027 C   0  0  0  0  0  0  0  0  0  0  0  0
   -4.4587  -51.2825   23.6532 H   0  0  0  0  0  0  0  0  0  0  0  0
   -4.7048  -51.0199   21.1469 H   0  0  0  0  0  0  0  0  0  0  0  0
   -2.7768  -50.1226   19.7727 H   0  0  0  0  0  0  0  0  0  0  0  0
   -0.3566  -49.7504   23.4109 H   0  0  0  0  0  0  0  0  0  0  0  0
   -2.6559  -50.0426   25.8551 H   0  0  0  0  0  0  0  0  0  0  0  0
    0.6410  -54.9435   27.3148 H   0  0  0  0  0  0  0  0  0  0  0  0
   -0.7710  -53.5060   28.8481 H   0  0  0  0  0  0  0  0  0  0  0  0
   -2.0892  -51.5621   27.9023 H   0  0  0  0  0  0  0  0  0  0  0  0
   -0.5834  -52.4932   23.8901 H   0  0  0  0  0  0  0  0  0  0  0  0
    1.9148  -54.9637   22.6677 H   0  0  0  0  0  0  0  0  0  0  0  0
    1.8470  -53.3057   23.2149 H   0  0  0  0  0  0  0  0  0  0  0  0
    0.4031  -54.0889   22.6193 H   0  0  0  0  0  0  0  0  0  0  0  0
    0.5435  -49.0972   21.3364 H   0  0  0  0  0  0  0  0  0  0  0  0
   -0.6839  -48.5028   20.1188 H   0  0  0  0  0  0  0  0  0  0  0  0
    1.1340  -50.7574   19.8298 H   0  0  0  0  0  0  0  0  0  0  0  0
    0.6579  -48.7664   18.0491 H   0  0  0  0  0  0  0  0  0  0  0  0
   -0.8369  -49.8141   17.9481 H   0  0  0  0  0  0  0  0  0  0  0  0
    1.5027  -49.9506   16.5098 H   0  0  0  0  0  0  0  0  0  0  0  0
   -0.0424  -50.9278   16.5002 H   0  0  0  0  0  0  0  0  0  0  0  0
    0.7283  -52.4811   17.1375 H   0  0  0  0  0  0  0  0  0  0  0  0
    3.1101  -52.3844   16.1257 H   0  0  0  0  0  0  0  0  0  0  0  0
    1.6051  -52.5583   15.4335 H   0  0  0  0  0  0  0  0  0  0  0  0
    2.1318  -53.6578   16.5685 H   0  0  0  0  0  0  0  0  0  0  0  0
    2.5053  -51.6181   19.0549 H   0  0  0  0  0  0  0  0  0  0  0  0
    1.8403  -54.2861   19.0043 H   0  0  0  0  0  0  0  0  0  0  0  0
    1.8888  -51.1457   20.5548 H   0  0  0  0  0  0  0  0  0  0  0  0
    0.3208  -52.0520   20.3049 H   0  0  0  0  0  0  0  0  0  0  0  0
  1  2  2  0  0  0  0
  2  3  1  0  0  0  0
  2 25  1  0  0  0  0
  3  4  2  0  0  0  0
  3 26  1  0  0  0  0
  4  5  1  0  0  0  0
  4 27  1  0  0  0  0
  5 16  1  0  0  0  0
  5  6  2  0  0  0  0
  6  1  1  0  0  0  0
  6 28  1  0  0  0  0
  7  1  1  0  0  0  0
  7 29  1  0  0  0  0
  8  9  2  0  0  0  0
  9 10  1  0  0  0  0
  9 30  1  0  0  0  0
 10 11  2  0  0  0  0
 10 31  1  0  0  0  0
 11 12  1  0  0  0  0
 11 32  1  0  0  0  0
 12  7  1  0  0  0  0
 12 13  2  0  0  0  0
 13  8  1  0  0  0  0
 13 33  1  0  0  0  0
 14 15  1  0  0  0  0
 14 34  1  0  0  0  0
 14 35  1  0  0  0  0
 14 36  1  0  0  0  0
 15  8  1  0  0  0  0
 16 17  1  0  0  0  0
 16 37  1  0  0  0  0
 16 38  1  0  0  0  0
 17 18  1  0  0  0  0
 17 39  1  1  0  0  0
 18 19  1  0  0  0  0
 18 40  1  0  0  0  0
 18 41  1  0  0  0  0
 19 20  1  0  0  0  0
 19 42  1  0  0  0  0
 19 43  1  0  0  0  0
 20 21  1  0  0  0  0
 20 22  1  0  0  0  0
 20 44  1  6  0  0  0
 21 45  1  0  0  0  0
 21 46  1  0  0  0  0
 21 47  1  0  0  0  0
 22 23  1  0  0  0  0
 22 24  1  0  0  0  0
 22 48  1  1  0  0  0
 23 49  1  0  0  0  0
 24 17  1  0  0  0  0
 24 50  1  0  0  0  0
 24 51  1  0  0  0  0
M  CHG  2  17   1  21   1
M  END
>  <minimizedAffinity>
-8.23035

$$$$

 OpenBabel09092411003D

 51 53  0  0  0  0  0  0  0  0999 V2000
    1.0415  -51.2739   25.1772 C   0  0  0  0  0  0  0  0  0  0  0  0
    2.4548  -50.9391   25.5520 C   0  0  0  0  0  0  0  0  0  0  0  0
    2.9825  -51.3196   26.9036 C   0  0  0  0  0  0  0  0  0  0  0  0
    2.0969  -52.0349   27.8804 C   0  0  0  0  0  0  0  0  0  0  0  0
    0.6836  -52.3697   27.5056 C   0  0  0  0  0  0  0  0  0  0  0  0
    0.1559  -51.9892   26.1541 C   0  0  0  0  0  0  0  0  0  0  0  0
    0.5137  -50.8934   23.8257 N   0  0  0  0  0  0  0  0  0  0  0  0
    1.1264  -52.0156   20.0686 C   0  0  0  0  0  0  0  0  0  0  0  0
    1.4083  -53.4774   20.2518 C   0  0  0  0  0  0  0  0  0  0  0  0
    1.3920  -54.0779   21.6262 C   0  0  0  0  0  0  0  0  0  0  0  0
    1.0938  -53.2166   22.8175 C   0  0  0  0  0  0  0  0  0  0  0  0
    0.8119  -51.7548   22.6344 C   0  0  0  0  0  0  0  0  0  0  0  0
    0.8282  -51.1543   21.2599 C   0  0  0  0  0  0  0  0  0  0  0  0
    0.4338  -50.1191   18.4335 C   0  0  0  0  0  0  0  0  0  0  0  0
    1.1427  -51.4150   18.6942 O   0  0  0  0  0  0  0  0  0  0  0  0
   -1.2574  -52.3240   25.7793 C   0  0  0  0  0  0  0  0  0  0  0  0
   -2.3084  -51.2538   25.7847 N   0  3  2  0  0  0  0  0  0  0  0  0
   -2.0678  -49.9702   26.5224 C   0  0  0  0  0  0  0  0  0  0  0  0
   -3.1188  -48.8999   26.5279 C   0  0  0  0  0  0  0  0  0  0  0  0
   -4.4103  -49.1133   25.7956 C   0  0  2  0  0  0  0  0  0  0  0  0
   -5.4613  -48.0431   25.8010 N   0  3  0  0  0  0  0  0  0  0  0  0
   -4.6509  -50.3971   25.0578 C   0  0  2  0  0  0  0  0  0  0  0  0
   -5.9425  -50.6105   24.3255 O   0  0  0  0  0  0  0  0  0  0  0  0
   -3.6000  -51.4673   25.0524 C   0  0  0  0  0  0  0  0  0  0  0  0
    3.0641  -50.4470   24.8800 H   0  0  0  0  0  0  0  0  0  0  0  0
    3.9549  -51.0893   27.1615 H   0  0  0  0  0  0  0  0  0  0  0  0
    2.4600  -52.2967   28.8103 H   0  0  0  0  0  0  0  0  0  0  0  0
    0.0743  -52.8618   28.1776 H   0  0  0  0  0  0  0  0  0  0  0  0
   -0.0284  -50.0784   23.7205 H   0  0  0  0  0  0  0  0  0  0  0  0
    1.6135  -54.0700   19.4322 H   0  0  0  0  0  0  0  0  0  0  0  0
    1.5860  -55.0836   21.7522 H   0  0  0  0  0  0  0  0  0  0  0  0
    1.0826  -53.6298   23.7631 H   0  0  0  0  0  0  0  0  0  0  0  0
    0.6342  -50.1486   21.1339 H   0  0  0  0  0  0  0  0  0  0  0  0
    0.5532  -49.8478   17.4054 H   0  0  0  0  0  0  0  0  0  0  0  0
    0.8497  -49.3538   19.0550 H   0  0  0  0  0  0  0  0  0  0  0  0
   -0.6072  -50.2313   18.6542 H   0  0  0  0  0  0  0  0  0  0  0  0
   -1.5856  -53.0827   26.4587 H   0  0  0  0  0  0  0  0  0  0  0  0
   -1.1815  -52.5889   24.7454 H   0  0  0  0  0  0  0  0  0  0  0  0
   -2.9092  -50.9182   25.0318 H   0  0  0  0  0  0  0  0  0  0  0  0
   -1.1850  -49.5341   26.1036 H   0  0  0  0  0  0  0  0  0  0  0  0
   -2.0259  -50.2790   27.5460 H   0  0  0  0  0  0  0  0  0  0  0  0
   -2.6688  -48.0230   26.1114 H   0  0  0  0  0  0  0  0  0  0  0  0
   -3.4215  -48.8577   27.5533 H   0  0  0  0  0  0  0  0  0  0  0  0
   -4.0565  -48.1036   25.8114 H   0  0  0  0  0  0  0  0  0  0  0  0
   -6.3856  -48.4742   25.7881 H   0  0  0  0  0  0  0  0  0  0  0  0
   -5.3499  -47.4530   24.9766 H   0  0  0  0  0  0  0  0  0  0  0  0
   -5.3631  -47.4744   26.6420 H   0  0  0  0  0  0  0  0  0  0  0  0
   -3.9122  -50.8723   24.4467 H   0  0  0  0  0  0  0  0  0  0  0  0
   -6.6679  -50.2028   24.8239 H   0  0  0  0  0  0  0  0  0  0  0  0
   -3.3482  -51.6478   24.0282 H   0  0  0  0  0  0  0  0  0  0  0  0
   -4.0605  -52.2670   25.5940 H   0  0  0  0  0  0  0  0  0  0  0  0
  1  2  2  0  0  0  0
  2  3  1  0  0  0  0
  2 25  1  0  0  0  0
  3  4  2  0  0  0  0
  3 26  1  0  0  0  0
  4  5  1  0  0  0  0
  4 27  1  0  0  0  0
  5  6  2  0  0  0  0
  5 28  1  0  0  0  0
  6 16  1  0  0  0  0
  6  1  1  0  0  0  0
  7  1  1  0  0  0  0
  7 29  1  0  0  0  0
  8  9  2  0  0  0  0
  9 10  1  0  0  0  0
  9 30  1  0  0  0  0
 10 11  2  0  0  0  0
 10 31  1  0  0  0  0
 11 12  1  0  0  0  0
 11 32  1  0  0  0  0
 12  7  1  0  0  0  0
 12 13  2  0  0  0  0
 13  8  1  0  0  0  0
 13 33  1  0  0  0  0
 14 15  1  0  0  0  0
 14 34  1  0  0  0  0
 14 35  1  0  0  0  0
 14 36  1  0  0  0  0
 15  8  1  0  0  0  0
 16 17  1  0  0  0  0
 16 37  1  0  0  0  0
 16 38  1  0  0  0  0
 17 18  1  0  0  0  0
 17 39  1  6  0  0  0
 18 19  1  0  0  0  0
 18 40  1  0  0  0  0
 18 41  1  0  0  0  0
 19 20  1  0  0  0  0
 19 42  1  0  0  0  0
 19 43  1  0  0  0  0
 20 21  1  0  0  0  0
 20 22  1  0  0  0  0
 20 44  1  6  0  0  0
 21 45  1  0  0  0  0
 21 46  1  0  0  0  0
 21 47  1  0  0  0  0
 22 23  1  0  0  0  0
 22 24  1  0  0  0  0
 22 48  1  6  0  0  0
 23 49  1  0  0  0  0
 24 17  1  0  0  0  0
 24 50  1  0  0  0  0
 24 51  1  0  0  0  0
M  CHG  2  17   1  21   1
M  END
>  <minimizedAffinity>
-8.39107

$$$$

 OpenBabel09092411003D

 51 53  0  0  0  0  0  0  0  0999 V2000
    1.0415  -51.2739   25.1772 C   0  0  0  0  0  0  0  0  0  0  0  0
    2.4548  -50.9391   25.5520 C   0  0  0  0  0  0  0  0  0  0  0  0
    2.9825  -51.3196   26.9036 C   0  0  0  0  0  0  0  0  0  0  0  0
    2.0969  -52.0349   27.8804 C   0  0  0  0  0  0  0  0  0  0  0  0
    0.6836  -52.3697   27.5056 C   0  0  0  0  0  0  0  0  0  0  0  0
    0.1559  -51.9892   26.1541 C   0  0  0  0  0  0  0  0  0  0  0  0
    0.5137  -50.8934   23.8257 N   0  0  0  0  0  0  0  0  0  0  0  0
    1.1264  -52.0156   20.0686 C   0  0  0  0  0  0  0  0  0  0  0  0
    1.4083  -53.4774   20.2518 C   0  0  0  0  0  0  0  0  0  0  0  0
    1.3920  -54.0779   21.6262 C   0  0  0  0  0  0  0  0  0  0  0  0
    1.0938  -53.2166   22.8175 C   0  0  0  0  0  0  0  0  0  0  0  0
    0.8119  -51.7548   22.6344 C   0  0  0  0  0  0  0  0  0  0  0  0
    0.8282  -51.1543   21.2599 C   0  0  0  0  0  0  0  0  0  0  0  0
    0.4338  -50.1191   18.4335 C   0  0  0  0  0  0  0  0  0  0  0  0
    1.1427  -51.4150   18.6942 O   0  0  0  0  0  0  0  0  0  0  0  0
   -1.2574  -52.3240   25.7793 C   0  0  0  0  0  0  0  0  0  0  0  0
   -2.3084  -51.2538   25.7847 N   0  3  2  0  0  0  0  0  0  0  0  0
   -2.0678  -49.9702   26.5224 C   0  0  0  0  0  0  0  0  0  0  0  0
   -3.1188  -48.8999   26.5279 C   0  0  0  0  0  0  0  0  0  0  0  0
   -4.4103  -49.1133   25.7956 C   0  0  2  0  0  0  0  0  0  0  0  0
   -5.4613  -48.0431   25.8010 N   0  3  0  0  0  0  0  0  0  0  0  0
   -4.6509  -50.3971   25.0578 C   0  0  2  0  0  0  0  0  0  0  0  0
   -5.9425  -50.6105   24.3255 O   0  0  0  0  0  0  0  0  0  0  0  0
   -3.6000  -51.4673   25.0524 C   0  0  0  0  0  0  0  0  0  0  0  0
    3.0641  -50.4470   24.8800 H   0  0  0  0  0  0  0  0  0  0  0  0
    3.9549  -51.0893   27.1615 H   0  0  0  0  0  0  0  0  0  0  0  0
    2.4600  -52.2967   28.8103 H   0  0  0  0  0  0  0  0  0  0  0  0
    0.0743  -52.8618   28.1776 H   0  0  0  0  0  0  0  0  0  0  0  0
   -0.0284  -50.0784   23.7205 H   0  0  0  0  0  0  0  0  0  0  0  0
    1.6135  -54.0700   19.4322 H   0  0  0  0  0  0  0  0  0  0  0  0
    1.5860  -55.0836   21.7522 H   0  0  0  0  0  0  0  0  0  0  0  0
    1.0826  -53.6298   23.7631 H   0  0  0  0  0  0  0  0  0  0  0  0
    0.6342  -50.1486   21.1339 H   0  0  0  0  0  0  0  0  0  0  0  0
    0.5532  -49.8478   17.4054 H   0  0  0  0  0  0  0  0  0  0  0  0
    0.8497  -49.3538   19.0550 H   0  0  0  0  0  0  0  0  0  0  0  0
   -0.6072  -50.2313   18.6542 H   0  0  0  0  0  0  0  0  0  0  0  0
   -1.5856  -53.0827   26.4587 H   0  0  0  0  0  0  0  0  0  0  0  0
   -1.1815  -52.5889   24.7454 H   0  0  0  0  0  0  0  0  0  0  0  0
   -2.9092  -50.9182   25.0318 H   0  0  0  0  0  0  0  0  0  0  0  0
   -1.1850  -49.5341   26.1036 H   0  0  0  0  0  0  0  0  0  0  0  0
   -2.0259  -50.2790   27.5460 H   0  0  0  0  0  0  0  0  0  0  0  0
   -2.6688  -48.0230   26.1114 H   0  0  0  0  0  0  0  0  0  0  0  0
   -3.4215  -48.8577   27.5533 H   0  0  0  0  0  0  0  0  0  0  0  0
   -4.0565  -48.1036   25.8114 H   0  0  0  0  0  0  0  0  0  0  0  0
   -6.3856  -48.4742   25.7881 H   0  0  0  0  0  0  0  0  0  0  0  0
   -5.3499  -47.4530   24.9766 H   0  0  0  0  0  0  0  0  0  0  0  0
   -5.3631  -47.4744   26.6420 H   0  0  0  0  0  0  0  0  0  0  0  0
   -3.9122  -50.8723   24.4467 H   0  0  0  0  0  0  0  0  0  0  0  0
   -6.6679  -50.2028   24.8239 H   0  0  0  0  0  0  0  0  0  0  0  0
   -3.3482  -51.6478   24.0282 H   0  0  0  0  0  0  0  0  0  0  0  0
   -4.0605  -52.2670   25.5940 H   0  0  0  0  0  0  0  0  0  0  0  0
  1  2  2  0  0  0  0
  2  3  1  0  0  0  0
  2 25  1  0  0  0  0
  3  4  2  0  0  0  0
  3 26  1  0  0  0  0
  4  5  1  0  0  0  0
  4 27  1  0  0  0  0
  5  6  2  0  0  0  0
  5 28  1  0  0  0  0
  6 16  1  0  0  0  0
  6  1  1  0  0  0  0
  7  1  1  0  0  0  0
  7 29  1  0  0  0  0
  8  9  2  0  0  0  0
  9 10  1  0  0  0  0
  9 30  1  0  0  0  0
 10 11  2  0  0  0  0
 10 31  1  0  0  0  0
 11 12  1  0  0  0  0
 11 32  1  0  0  0  0
 12  7  1  0  0  0  0
 12 13  2  0  0  0  0
 13  8  1  0  0  0  0
 13 33  1  0  0  0  0
 14 15  1  0  0  0  0
 14 34  1  0  0  0  0
 14 35  1  0  0  0  0
 14 36  1  0  0  0  0
 15  8  1  0  0  0  0
 16 17  1  0  0  0  0
 16 37  1  0  0  0  0
 16 38  1  0  0  0  0
 17 18  1  0  0  0  0
 17 39  1  6  0  0  0
 18 19  1  0  0  0  0
 18 40  1  0  0  0  0
 18 41  1  0  0  0  0
 19 20  1  0  0  0  0
 19 42  1  0  0  0  0
 19 43  1  0  0  0  0
 20 21  1  0  0  0  0
 20 22  1  0  0  0  0
 20 44  1  6  0  0  0
 21 45  1  0  0  0  0
 21 46  1  0  0  0  0
 21 47  1  0  0  0  0
 22 23  1  0  0  0  0
 22 24  1  0  0  0  0
 22 48  1  6  0  0  0
 23 49  1  0  0  0  0
 24 17  1  0  0  0  0
 24 50  1  0  0  0  0
 24 51  1  0  0  0  0
M  CHG  2  17   1  21   1
M  END
>  <minimizedAffinity>
-8.39107

$$$$

 OpenBabel09092411003D

 51 53  0  0  0  0  0  0  0  0999 V2000
   -1.1353  -51.2805   21.8243 C   0  0  0  0  0  0  0  0  0  0  0  0
   -1.6259  -50.2036   20.9025 C   0  0  0  0  0  0  0  0  0  0  0  0
   -0.6861  -49.5739   19.9175 C   0  0  0  0  0  0  0  0  0  0  0  0
    0.7443  -50.0210   19.8543 C   0  0  0  0  0  0  0  0  0  0  0  0
    1.2349  -51.0979   20.7761 C   0  0  0  0  0  0  0  0  0  0  0  0
    0.2952  -51.7276   21.7611 C   0  0  0  0  0  0  0  0  0  0  0  0
   -2.0751  -51.9102   22.8093 N   0  0  0  0  0  0  0  0  0  0  0  0
   -2.3898  -49.0557   25.5484 C   0  0  0  0  0  0  0  0  0  0  0  0
   -3.0087  -49.8180   26.6824 C   0  0  0  0  0  0  0  0  0  0  0  0
   -3.3163  -51.2776   26.5254 C   0  0  0  0  0  0  0  0  0  0  0  0
   -3.0051  -51.9751   25.2344 C   0  0  0  0  0  0  0  0  0  0  0  0
   -2.3863  -51.2128   24.1004 C   0  0  0  0  0  0  0  0  0  0  0  0
   -2.0787  -49.7531   24.2574 C   0  0  0  0  0  0  0  0  0  0  0  0
   -2.1203  -46.6888   24.5115 C   0  0  0  0  0  0  0  0  0  0  0  0
   -2.0822  -47.5960   25.7055 O   0  0  0  0  0  0  0  0  0  0  0  0
    0.7858  -52.8044   22.6828 C   0  0  0  0  0  0  0  0  0  0  0  0
    0.7624  -52.5893   24.1671 N   0  3  1  0  0  0  0  0  0  0  0  0
    1.2700  -51.3022   24.7464 C   0  0  0  0  0  0  0  0  0  0  0  0
    1.2466  -51.0869   26.2308 C   0  0  0  0  0  0  0  0  0  0  0  0
    0.7156  -52.1589   27.1357 C   0  0  2  0  0  0  0  0  0  0  0  0
    0.6922  -51.9437   28.6200 O   0  0  0  0  0  0  0  0  0  0  0  0
    0.2080  -53.4461   26.5564 C   0  0  1  0  0  0  0  0  0  0  0  0
   -0.3230  -54.5180   27.4613 N   0  3  0  0  0  0  0  0  0  0  0  0
    0.2314  -53.6612   25.0721 C   0  0  0  0  0  0  0  0  0  0  0  0
   -2.6100  -49.8959   20.9460 H   0  0  0  0  0  0  0  0  0  0  0  0
   -1.0236  -48.8330   19.2833 H   0  0  0  0  0  0  0  0  0  0  0  0
    1.3909  -49.5877   19.1766 H   0  0  0  0  0  0  0  0  0  0  0  0
    2.2190  -51.4055   20.7326 H   0  0  0  0  0  0  0  0  0  0  0  0
   -2.4877  -52.7812   22.6084 H   0  0  0  0  0  0  0  0  0  0  0  0
   -3.2229  -49.3382   27.5706 H   0  0  0  0  0  0  0  0  0  0  0  0
   -3.7421  -51.8020   27.3056 H   0  0  0  0  0  0  0  0  0  0  0  0
   -3.2167  -52.9794   25.1264 H   0  0  0  0  0  0  0  0  0  0  0  0
   -1.6530  -49.2286   23.4772 H   0  0  0  0  0  0  0  0  0  0  0  0
   -1.8757  -45.6918   24.8132 H   0  0  0  0  0  0  0  0  0  0  0  0
   -3.1015  -46.7018   24.0849 H   0  0  0  0  0  0  0  0  0  0  0  0
   -1.4109  -47.0257   23.7848 H   0  0  0  0  0  0  0  0  0  0  0  0
    1.8031  -53.0003   22.4151 H   0  0  0  0  0  0  0  0  0  0  0  0
    0.0782  -53.5937   22.5375 H   0  0  0  0  0  0  0  0  0  0  0  0
    0.6863  -53.6011   24.0626 H   0  0  0  0  0  0  0  0  0  0  0  0
    0.6880  -50.5168   24.3112 H   0  0  0  0  0  0  0  0  0  0  0  0
    2.3150  -51.3248   24.5176 H   0  0  0  0  0  0  0  0  0  0  0  0
    0.6549  -50.2129   26.4069 H   0  0  0  0  0  0  0  0  0  0  0  0
    2.2839  -51.0387   26.4888 H   0  0  0  0  0  0  0  0  0  0  0  0
    0.5737  -52.5099   26.1349 H   0  0  0  0  0  0  0  0  0  0  0  0
    1.2476  -51.1809   28.8449 H   0  0  0  0  0  0  0  0  0  0  0  0
    0.5169  -54.2530   27.1876 H   0  0  0  0  0  0  0  0  0  0  0  0
   -1.3412  -54.4650   27.4901 H   0  0  0  0  0  0  0  0  0  0  0  0
    0.0511  -54.3858   28.4010 H   0  0  0  0  0  0  0  0  0  0  0  0
   -0.0400  -55.4321   27.1082 H   0  0  0  0  0  0  0  0  0  0  0  0
   -0.7784  -53.8474   24.7710 H   0  0  0  0  0  0  0  0  0  0  0  0
    0.9359  -54.4573   24.9501 H   0  0  0  0  0  0  0  0  0  0  0  0
  1  2  2  0  0  0  0
  2  3  1  0  0  0  0
  2 25  1  0  0  0  0
  3  4  2  0  0  0  0
  3 26  1  0  0  0  0
  4  5  1  0  0  0  0
  4 27  1  0  0  0  0
  5  6  2  0  0  0  0
  5 28  1  0  0  0  0
  6 16  1  0  0  0  0
  6  1  1  0  0  0  0
  7  1  1  0  0  0  0
  7 29  1  0  0  0  0
  8  9  2  0  0  0  0
  9 10  1  0  0  0  0
  9 30  1  0  0  0  0
 10 11  2  0  0  0  0
 10 31  1  0  0  0  0
 11 12  1  0  0  0  0
 11 32  1  0  0  0  0
 12  7  1  0  0  0  0
 12 13  2  0  0  0  0
 13  8  1  0  0  0  0
 13 33  1  0  0  0  0
 14 15  1  0  0  0  0
 14 34  1  0  0  0  0
 14 35  1  0  0  0  0
 14 36  1  0  0  0  0
 15  8  1  0  0  0  0
 16 17  1  0  0  0  0
 16 37  1  0  0  0  0
 16 38  1  0  0  0  0
 17 18  1  0  0  0  0
 17 39  1  1  0  0  0
 18 19  1  0  0  0  0
 18 40  1  0  0  0  0
 18 41  1  0  0  0  0
 19 20  1  0  0  0  0
 19 42  1  0  0  0  0
 19 43  1  0  0  0  0
 20 21  1  0  0  0  0
 20 22  1  0  0  0  0
 20 44  1  6  0  0  0
 21 45  1  0  0  0  0
 22 23  1  0  0  0  0
 22 24  1  0  0  0  0
 22 46  1  1  0  0  0
 23 47  1  0  0  0  0
 23 48  1  0  0  0  0
 23 49  1  0  0  0  0
 24 17  1  0  0  0  0
 24 50  1  0  0  0  0
 24 51  1  0  0  0  0
M  CHG  2  17   1  23   1
M  END
>  <minimizedAffinity>
-8.07430

$$$$

 OpenBabel09092411003D

 51 53  0  0  0  0  0  0  0  0999 V2000
   -0.2775  -51.5591   20.3915 C   0  0  0  0  0  0  0  0  0  0  0  0
    0.6609  -51.6527   19.2251 C   0  0  0  0  0  0  0  0  0  0  0  0
    1.8537  -52.5598   19.2930 C   0  0  0  0  0  0  0  0  0  0  0  0
    2.1081  -53.3732   20.5274 C   0  0  0  0  0  0  0  0  0  0  0  0
    1.1696  -53.2796   21.6938 C   0  0  0  0  0  0  0  0  0  0  0  0
   -0.0231  -52.3726   21.6259 C   0  0  0  0  0  0  0  0  0  0  0  0
   -1.4702  -50.6521   20.3236 N   0  0  0  0  0  0  0  0  0  0  0  0
   -2.1095  -47.6229   22.8067 C   0  0  0  0  0  0  0  0  0  0  0  0
   -1.2843  -46.5490   22.1620 C   0  0  0  0  0  0  0  0  0  0  0  0
   -0.5211  -46.8427   20.9046 C   0  0  0  0  0  0  0  0  0  0  0  0
   -0.5830  -48.2104   20.2918 C   0  0  0  0  0  0  0  0  0  0  0  0
   -1.4082  -49.2843   20.9364 C   0  0  0  0  0  0  0  0  0  0  0  0
   -2.1714  -48.9906   22.1939 C   0  0  0  0  0  0  0  0  0  0  0  0
   -2.3125  -47.7376   25.3943 C   0  0  0  0  0  0  0  0  0  0  0  0
   -2.8727  -47.3292   24.0642 O   0  0  0  0  0  0  0  0  0  0  0  0
    1.4239  -54.0930   22.9282 C   0  0  0  0  0  0  0  0  0  0  0  0
    1.1150  -53.5211   24.2801 N   0  3  2  0  0  0  0  0  0  0  0  0
    1.5954  -52.1465   24.6406 C   0  0  0  0  0  0  0  0  0  0  0  0
    1.2865  -51.5747   25.9924 C   0  0  0  0  0  0  0  0  0  0  0  0
    0.4973  -52.3773   26.9838 C   0  0  1  0  0  0  0  0  0  0  0  0
    0.1884  -51.8054   28.3357 O   0  0  0  0  0  0  0  0  0  0  0  0
    0.0169  -53.7518   26.6233 C   0  0  2  0  0  0  0  0  0  0  0  0
   -0.7723  -54.5544   27.6148 N   0  3  0  0  0  0  0  0  0  0  0  0
    0.3258  -54.3237   25.2715 C   0  0  0  0  0  0  0  0  0  0  0  0
    0.4859  -51.0930   18.3759 H   0  0  0  0  0  0  0  0  0  0  0  0
    2.4993  -52.6242   18.4905 H   0  0  0  0  0  0  0  0  0  0  0  0
    2.9288  -53.9972   20.5742 H   0  0  0  0  0  0  0  0  0  0  0  0
   -0.6687  -52.3082   22.4284 H   0  0  0  0  0  0  0  0  0  0  0  0
   -2.2937  -50.9545   19.8768 H   0  0  0  0  0  0  0  0  0  0  0  0
   -1.2416  -45.6080   22.5836 H   0  0  0  0  0  0  0  0  0  0  0  0
    0.0466  -46.1038   20.4611 H   0  0  0  0  0  0  0  0  0  0  0  0
   -0.0578  -48.4125   19.4267 H   0  0  0  0  0  0  0  0  0  0  0  0
   -2.7391  -49.7295   22.6375 H   0  0  0  0  0  0  0  0  0  0  0  0
   -2.9896  -47.4480   26.1706 H   0  0  0  0  0  0  0  0  0  0  0  0
   -1.3687  -47.2570   25.5466 H   0  0  0  0  0  0  0  0  0  0  0  0
   -2.1796  -48.7991   25.4146 H   0  0  0  0  0  0  0  0  0  0  0  0
    2.4654  -54.3384   22.9273 H   0  0  0  0  0  0  0  0  0  0  0  0
    0.7281  -54.9009   22.8381 H   0  0  0  0  0  0  0  0  0  0  0  0
    0.4143  -53.7136   23.5643 H   0  0  0  0  0  0  0  0  0  0  0  0
    1.1798  -51.4748   23.9188 H   0  0  0  0  0  0  0  0  0  0  0  0
    2.6598  -52.2543   24.6565 H   0  0  0  0  0  0  0  0  0  0  0  0
    0.7436  -50.6675   25.8273 H   0  0  0  0  0  0  0  0  0  0  0  0
    2.2497  -51.4950   26.4516 H   0  0  0  0  0  0  0  0  0  0  0  0
    1.2881  -52.4297   27.7027 H   0  0  0  0  0  0  0  0  0  0  0  0
   -0.7196  -51.4641   28.3426 H   0  0  0  0  0  0  0  0  0  0  0  0
   -0.6943  -53.7307   25.8242 H   0  0  0  0  0  0  0  0  0  0  0  0
   -0.2251  -54.6751   28.4671 H   0  0  0  0  0  0  0  0  0  0  0  0
   -0.9884  -55.4685   27.2172 H   0  0  0  0  0  0  0  0  0  0  0  0
   -1.6401  -54.0654   27.8343 H   0  0  0  0  0  0  0  0  0  0  0  0
   -0.6127  -54.5488   24.8095 H   0  0  0  0  0  0  0  0  0  0  0  0
    0.9739  -55.1454   25.4943 H   0  0  0  0  0  0  0  0  0  0  0  0
  1  2  2  0  0  0  0
  2  3  1  0  0  0  0
  2 25  1  0  0  0  0
  3  4  2  0  0  0  0
  3 26  1  0  0  0  0
  4  5  1  0  0  0  0
  4 27  1  0  0  0  0
  5 16  1  0  0  0  0
  5  6  2  0  0  0  0
  6  1  1  0  0  0  0
  6 28  1  0  0  0  0
  7  1  1  0  0  0  0
  7 29  1  0  0  0  0
  8  9  2  0  0  0  0
  9 10  1  0  0  0  0
  9 30  1  0  0  0  0
 10 11  2  0  0  0  0
 10 31  1  0  0  0  0
 11 12  1  0  0  0  0
 11 32  1  0  0  0  0
 12  7  1  0  0  0  0
 12 13  2  0  0  0  0
 13  8  1  0  0  0  0
 13 33  1  0  0  0  0
 14 15  1  0  0  0  0
 14 34  1  0  0  0  0
 14 35  1  0  0  0  0
 14 36  1  0  0  0  0
 15  8  1  0  0  0  0
 16 17  1  0  0  0  0
 16 37  1  0  0  0  0
 16 38  1  0  0  0  0
 17 18  1  0  0  0  0
 17 39  1  6  0  0  0
 18 19  1  0  0  0  0
 18 40  1  0  0  0  0
 18 41  1  0  0  0  0
 19 20  1  0  0  0  0
 19 42  1  0  0  0  0
 19 43  1  0  0  0  0
 20 21  1  0  0  0  0
 20 22  1  0  0  0  0
 20 44  1  1  0  0  0
 21 45  1  0  0  0  0
 22 23  1  0  0  0  0
 22 24  1  0  0  0  0
 22 46  1  6  0  0  0
 23 47  1  0  0  0  0
 23 48  1  0  0  0  0
 23 49  1  0  0  0  0
 24 17  1  0  0  0  0
 24 50  1  0  0  0  0
 24 51  1  0  0  0  0
M  CHG  2  17   1  23   1
M  END
>  <minimizedAffinity>
-8.37203

$$$$

 OpenBabel09092411003D

 51 53  0  0  0  0  0  0  0  0999 V2000
    0.2140  -52.1738   22.9118 C   0  0  0  0  0  0  0  0  0  0  0  0
    0.9528  -53.3907   22.4390 C   0  0  0  0  0  0  0  0  0  0  0  0
    1.5784  -53.4057   21.0758 C   0  0  0  0  0  0  0  0  0  0  0  0
    1.4653  -52.2038   20.1854 C   0  0  0  0  0  0  0  0  0  0  0  0
    0.7265  -50.9870   20.6582 C   0  0  0  0  0  0  0  0  0  0  0  0
    0.1008  -50.9720   22.0215 C   0  0  0  0  0  0  0  0  0  0  0  0
   -0.4117  -52.1589   24.2750 N   0  0  0  0  0  0  0  0  0  0  0  0
   -0.0823  -52.4112   26.8398 C   0  0  0  0  0  0  0  0  0  0  0  0
    0.7797  -52.2686   28.0590 C   0  0  0  0  0  0  0  0  0  0  0  0
    2.1744  -51.7311   27.9328 C   0  0  0  0  0  0  0  0  0  0  0  0
    2.7071  -51.3363   26.5874 C   0  0  0  0  0  0  0  0  0  0  0  0
    1.8451  -51.4789   25.3681 C   0  0  0  0  0  0  0  0  0  0  0  0
    0.4504  -52.0163   25.4944 C   0  0  0  0  0  0  0  0  0  0  0  0
   -2.6153  -52.0181   27.2633 C   0  0  0  0  0  0  0  0  0  0  0  0
   -1.4771  -52.9486   26.9660 O   0  0  0  0  0  0  0  0  0  0  0  0
    0.6133  -49.7851   19.7679 C   0  0  0  0  0  0  0  0  0  0  0  0
   -0.0317  -49.9088   18.4193 N   0  3  1  0  0  0  0  0  0  0  0  0
    0.8137  -49.9029   17.1802 C   0  0  0  0  0  0  0  0  0  0  0  0
    0.1686  -50.0267   15.8316 C   0  0  0  0  0  0  0  0  0  0  0  0
   -1.3218  -50.1563   15.7222 C   0  0  1  0  0  0  0  0  0  0  0  0
   -1.9668  -50.2801   14.3736 N   0  3  0  0  0  0  0  0  0  0  0  0
   -2.1671  -50.1622   16.9613 C   0  0  1  0  0  0  0  0  0  0  0  0
   -3.6574  -50.2919   16.8518 O   0  0  0  0  0  0  0  0  0  0  0  0
   -1.5221  -50.0385   18.3098 C   0  0  0  0  0  0  0  0  0  0  0  0
    1.0306  -54.2175   23.0516 H   0  0  0  0  0  0  0  0  0  0  0  0
    2.0866  -54.2429   20.7505 H   0  0  0  0  0  0  0  0  0  0  0  0
    1.8958  -52.2141   19.2475 H   0  0  0  0  0  0  0  0  0  0  0  0
   -0.4075  -50.1348   22.3468 H   0  0  0  0  0  0  0  0  0  0  0  0
   -1.3881  -52.2427   24.3695 H   0  0  0  0  0  0  0  0  0  0  0  0
    0.4132  -52.5403   28.9847 H   0  0  0  0  0  0  0  0  0  0  0  0
    2.7674  -51.6329   28.7717 H   0  0  0  0  0  0  0  0  0  0  0  0
    3.6667  -50.9666   26.5006 H   0  0  0  0  0  0  0  0  0  0  0  0
    2.2116  -51.2073   24.4424 H   0  0  0  0  0  0  0  0  0  0  0  0
   -3.5271  -52.5755   27.3165 H   0  0  0  0  0  0  0  0  0  0  0  0
   -2.6897  -51.2860   26.4865 H   0  0  0  0  0  0  0  0  0  0  0  0
   -2.4411  -51.5290   28.1989 H   0  0  0  0  0  0  0  0  0  0  0  0
    1.6084  -49.4282   19.6028 H   0  0  0  0  0  0  0  0  0  0  0  0
   -0.0564  -49.1448   20.3031 H   0  0  0  0  0  0  0  0  0  0  0  0
   -0.1126  -48.9065   18.2481 H   0  0  0  0  0  0  0  0  0  0  0  0
    1.4998  -50.7190   17.2705 H   0  0  0  0  0  0  0  0  0  0  0  0
    1.2238  -48.9147   17.1669 H   0  0  0  0  0  0  0  0  0  0  0  0
    0.5890  -50.8938   15.3665 H   0  0  0  0  0  0  0  0  0  0  0  0
    0.3672  -49.0791   15.3761 H   0  0  0  0  0  0  0  0  0  0  0  0
   -1.9232  -49.4037   16.1878 H   0  0  0  0  0  0  0  0  0  0  0  0
   -1.4727  -50.9828   13.8236 H   0  0  0  0  0  0  0  0  0  0  0  0
   -1.9254  -49.3813   13.8931 H   0  0  0  0  0  0  0  0  0  0  0  0
   -2.9410  -50.5604   14.4871 H   0  0  0  0  0  0  0  0  0  0  0  0
   -1.9794  -49.2450   17.4794 H   0  0  0  0  0  0  0  0  0  0  0  0
   -3.8771  -51.1140   16.3861 H   0  0  0  0  0  0  0  0  0  0  0  0
   -1.7979  -50.9104   18.8653 H   0  0  0  0  0  0  0  0  0  0  0  0
   -1.8780  -49.0948   18.6670 H   0  0  0  0  0  0  0  0  0  0  0  0
  1  2  2  0  0  0  0
  2  3  1  0  0  0  0
  2 25  1  0  0  0  0
  3  4  2  0  0  0  0
  3 26  1  0  0  0  0
  4  5  1  0  0  0  0
  4 27  1  0  0  0  0
  5 16  1  0  0  0  0
  5  6  2  0  0  0  0
  6  1  1  0  0  0  0
  6 28  1  0  0  0  0
  7  1  1  0  0  0  0
  7 29  1  0  0  0  0
  8  9  2  0  0  0  0
  9 10  1  0  0  0  0
  9 30  1  0  0  0  0
 10 11  2  0  0  0  0
 10 31  1  0  0  0  0
 11 12  1  0  0  0  0
 11 32  1  0  0  0  0
 12 13  2  0  0  0  0
 12 33  1  0  0  0  0
 13  7  1  0  0  0  0
 13  8  1  0  0  0  0
 14 15  1  0  0  0  0
 14 34  1  0  0  0  0
 14 35  1  0  0  0  0
 14 36  1  0  0  0  0
 15  8  1  0  0  0  0
 16 17  1  0  0  0  0
 16 37  1  0  0  0  0
 16 38  1  0  0  0  0
 17 18  1  0  0  0  0
 17 39  1  6  0  0  0
 18 19  1  0  0  0  0
 18 40  1  0  0  0  0
 18 41  1  0  0  0  0
 19 20  1  0  0  0  0
 19 42  1  0  0  0  0
 19 43  1  0  0  0  0
 20 21  1  0  0  0  0
 20 22  1  0  0  0  0
 20 44  1  6  0  0  0
 21 45  1  0  0  0  0
 21 46  1  0  0  0  0
 21 47  1  0  0  0  0
 22 23  1  0  0  0  0
 22 24  1  0  0  0  0
 22 48  1  6  0  0  0
 23 49  1  0  0  0  0
 24 17  1  0  0  0  0
 24 50  1  0  0  0  0
 24 51  1  0  0  0  0
M  CHG  2  17   1  21   1
M  END
>  <minimizedAffinity>
-8.50056

$$$$

 OpenBabel09092411003D

 48 50  0  0  0  0  0  0  0  0999 V2000
    0.9180  -51.7446   22.3009 C   0  0  0  0  0  0  0  0  0  0  0  0
    1.0307  -51.3064   20.8708 C   0  0  0  0  0  0  0  0  0  0  0  0
    1.3851  -52.3025   19.8068 C   0  0  0  0  0  0  0  0  0  0  0  0
    1.6268  -53.7369   20.1729 N   0  0  0  0  0  0  0  0  0  0  0  0
    1.5141  -54.1752   21.6030 C   0  0  0  0  0  0  0  0  0  0  0  0
    1.1598  -53.1791   22.6670 N   0  0  0  0  0  0  0  0  0  0  0  0
    1.4978  -51.8642   18.3767 N   0  0  0  0  0  0  0  0  0  0  0  0
    2.5528  -52.5561   17.5652 C   0  0  0  0  0  0  0  0  0  0  0  0
    2.9111  -52.3466   16.1237 C   0  0  0  0  0  0  0  0  0  0  0  0
    2.3031  -51.3936   15.1379 C   0  0  1  0  0  0  0  0  0  0  0  0
    2.8891  -51.4235   13.7574 N   0  3  0  0  0  0  0  0  0  0  0  0
    1.1865  -50.4147   15.3498 C   0  0  2  0  0  0  0  0  0  0  0  0
    0.8036  -49.5951   14.1534 O   0  0  0  0  0  0  0  0  0  0  0  0
    0.4022  -50.1470   16.6001 C   0  0  0  0  0  0  0  0  0  0  0  0
    0.5408  -50.7922   17.9472 C   0  0  0  0  0  0  0  0  0  0  0  0
    0.5637  -50.7485   23.3649 N   0  0  0  0  0  0  0  0  0  0  0  0
   -0.1823  -51.7558   27.1304 C   0  0  0  0  0  0  0  0  0  0  0  0
    1.2047  -51.7644   27.7016 C   0  0  0  0  0  0  0  0  0  0  0  0
    2.3779  -51.4345   26.8272 C   0  0  0  0  0  0  0  0  0  0  0  0
    2.1643  -51.0958   25.3817 C   0  0  0  0  0  0  0  0  0  0  0  0
    0.7773  -51.0871   24.8104 C   0  0  0  0  0  0  0  0  0  0  0  0
   -0.3960  -51.4171   25.6848 C   0  0  0  0  0  0  0  0  0  0  0  0
   -2.7515  -51.8865   27.4930 C   0  0  0  0  0  0  0  0  0  0  0  0
   -1.3556  -52.0858   28.0047 O   0  0  0  0  0  0  0  0  0  0  0  0
    0.8644  -50.3195   20.6189 H   0  0  0  0  0  0  0  0  0  0  0  0
    1.6803  -55.1621   21.8549 H   0  0  0  0  0  0  0  0  0  0  0  0
    2.3037  -53.5946   17.6313 H   0  0  0  0  0  0  0  0  0  0  0  0
    3.4136  -52.0997   18.0075 H   0  0  0  0  0  0  0  0  0  0  0  0
    2.7900  -53.3102   15.6746 H   0  0  0  0  0  0  0  0  0  0  0  0
    3.8462  -51.8467   16.2669 H   0  0  0  0  0  0  0  0  0  0  0  0
    1.8857  -51.3717   16.1229 H   0  0  0  0  0  0  0  0  0  0  0  0
    2.3278  -52.0334   13.1629 H   0  0  0  0  0  0  0  0  0  0  0  0
    3.8448  -51.7772   13.8013 H   0  0  0  0  0  0  0  0  0  0  0  0
    2.8932  -50.4802   13.3693 H   0  0  0  0  0  0  0  0  0  0  0  0
    1.4596  -50.9999   16.2030 H   0  0  0  0  0  0  0  0  0  0  0  0
    0.8185  -48.6540   14.3880 H   0  0  0  0  0  0  0  0  0  0  0  0
   -0.6155  -50.3245   16.3213 H   0  0  0  0  0  0  0  0  0  0  0  0
    0.8169  -49.1908   16.8422 H   0  0  0  0  0  0  0  0  0  0  0  0
   -0.4273  -51.2003   18.1498 H   0  0  0  0  0  0  0  0  0  0  0  0
    0.9842  -49.9698   18.4687 H   0  0  0  0  0  0  0  0  0  0  0  0
    0.1909  -49.8724   23.1145 H   0  0  0  0  0  0  0  0  0  0  0  0
    1.3517  -51.9973   28.6962 H   0  0  0  0  0  0  0  0  0  0  0  0
    3.3321  -51.4406   27.2202 H   0  0  0  0  0  0  0  0  0  0  0  0
    2.9715  -50.8687   24.7802 H   0  0  0  0  0  0  0  0  0  0  0  0
   -1.3502  -51.4111   25.2918 H   0  0  0  0  0  0  0  0  0  0  0  0
   -3.4527  -52.1727   28.2488 H   0  0  0  0  0  0  0  0  0  0  0  0
   -2.9012  -52.4886   26.6212 H   0  0  0  0  0  0  0  0  0  0  0  0
   -2.8963  -50.8560   27.2439 H   0  0  0  0  0  0  0  0  0  0  0  0
  1  2  2  0  0  0  0
  2  3  1  0  0  0  0
  2 25  1  0  0  0  0
  3  7  1  0  0  0  0
  3  4  2  0  0  0  0
  4  5  1  0  0  0  0
  5  6  2  0  0  0  0
  5 26  1  0  0  0  0
  6  1  1  0  0  0  0
  7  8  1  0  0  0  0
  8  9  1  0  0  0  0
  8 27  1  0  0  0  0
  8 28  1  0  0  0  0
  9 10  1  0  0  0  0
  9 29  1  0  0  0  0
  9 30  1  0  0  0  0
 10 11  1  0  0  0  0
 10 12  1  0  0  0  0
 10 31  1  1  0  0  0
 11 32  1  0  0  0  0
 11 33  1  0  0  0  0
 11 34  1  0  0  0  0
 12 13  1  0  0  0  0
 12 14  1  0  0  0  0
 12 35  1  6  0  0  0
 13 36  1  0  0  0  0
 14 15  1  0  0  0  0
 14 37  1  0  0  0  0
 14 38  1  0  0  0  0
 15  7  1  0  0  0  0
 15 39  1  0  0  0  0
 15 40  1  0  0  0  0
 16  1  1  0  0  0  0
 16 41  1  0  0  0  0
 17 18  2  0  0  0  0
 18 19  1  0  0  0  0
 18 42  1  0  0  0  0
 19 20  2  0  0  0  0
 19 43  1  0  0  0  0
 20 21  1  0  0  0  0
 20 44  1  0  0  0  0
 21 16  1  0  0  0  0
 21 22  2  0  0  0  0
 22 17  1  0  0  0  0
 22 45  1  0  0  0  0
 23 24  1  0  0  0  0
 23 46  1  0  0  0  0
 23 47  1  0  0  0  0
 23 48  1  0  0  0  0
 24 17  1  0  0  0  0
M  CHG  1  11   1
M  END
>  <minimizedAffinity>
-7.77939

$$$$

 OpenBabel09092411003D

 49 51  0  0  0  0  0  0  0  0999 V2000
   -0.1072  -50.6265   21.8610 N   0  0  0  0  0  0  0  0  0  0  0  0
    0.5182  -51.3989   20.7374 C   0  0  0  0  0  0  0  0  0  0  0  0
    1.1174  -52.7491   20.9979 O   0  0  0  0  0  0  0  0  0  0  0  0
    0.5442  -50.8212   19.3534 N   0  0  0  0  0  0  0  0  0  0  0  0
   -0.0124  -49.4901   18.9430 C   0  0  0  0  0  0  0  0  0  0  0  0
    0.2308  -49.3194   17.4728 C   0  0  1  0  0  0  0  0  0  0  0  0
    0.0372  -48.3912   16.3105 C   0  0  0  0  0  0  0  0  0  0  0  0
    0.6245  -49.0430   15.0938 C   0  0  0  0  0  0  0  0  0  0  0  0
    1.1811  -50.3741   15.5043 N   0  3  1  0  0  0  0  0  0  0  0  0
    1.8616  -51.3611   14.6027 C   0  0  0  0  0  0  0  0  0  0  0  0
    0.9379  -50.5449   16.9745 C   0  0  2  0  0  0  0  0  0  0  0  0
    1.1315  -51.4731   18.1368 C   0  0  0  0  0  0  0  0  0  0  0  0
   -1.3841  -51.8480   23.7655 C   0  0  0  0  0  0  0  0  0  0  0  0
   -1.4103  -52.4257   25.1495 C   0  0  0  0  0  0  0  0  0  0  0  0
   -0.1856  -52.3596   26.0131 C   0  0  0  0  0  0  0  0  0  0  0  0
    1.0652  -51.7158   25.4926 C   0  0  0  0  0  0  0  0  0  0  0  0
    1.0914  -51.1381   24.1086 C   0  0  0  0  0  0  0  0  0  0  0  0
   -0.1333  -51.2042   23.2451 C   0  0  0  0  0  0  0  0  0  0  0  0
    2.2899  -51.6498   26.3562 C   0  0  0  0  0  0  0  0  0  0  0  0
    3.5147  -51.5837   27.2197 N   0  0  0  0  0  0  0  0  0  0  0  0
   -2.6088  -51.9140   22.9019 O   0  0  0  0  0  0  0  0  0  0  0  0
   -5.1329  -51.6150   23.4402 C   0  0  0  0  0  0  0  0  0  0  0  0
   -3.7786  -51.0205   23.1899 C   0  0  0  0  0  0  0  0  0  0  0  0
   -3.5943  -49.5323   23.2276 C   0  0  0  0  0  0  0  0  0  0  0  0
   -0.5006  -49.7403   21.6900 H   0  0  0  0  0  0  0  0  0  0  0  0
    0.4778  -48.7087   19.4853 H   0  0  0  0  0  0  0  0  0  0  0  0
   -1.0603  -49.4443   19.1542 H   0  0  0  0  0  0  0  0  0  0  0  0
   -0.2739  -48.4454   17.8282 H   0  0  0  0  0  0  0  0  0  0  0  0
    0.5340  -47.4628   16.5006 H   0  0  0  0  0  0  0  0  0  0  0  0
   -1.0040  -48.1949   16.1610 H   0  0  0  0  0  0  0  0  0  0  0  0
    1.4056  -48.4302   14.6948 H   0  0  0  0  0  0  0  0  0  0  0  0
   -0.1255  -49.1697   14.3413 H   0  0  0  0  0  0  0  0  0  0  0  0
    1.6434  -51.0456   14.8913 H   0  0  0  0  0  0  0  0  0  0  0  0
    2.8123  -50.9730   14.3020 H   0  0  0  0  0  0  0  0  0  0  0  0
    1.2556  -51.5304   13.7372 H   0  0  0  0  0  0  0  0  0  0  0  0
    2.0023  -52.2839   15.1257 H   0  0  0  0  0  0  0  0  0  0  0  0
    1.4426  -51.4189   16.6191 H   0  0  0  0  0  0  0  0  0  0  0  0
    2.1755  -51.6518   18.2888 H   0  0  0  0  0  0  0  0  0  0  0  0
    0.6504  -52.4101   17.9484 H   0  0  0  0  0  0  0  0  0  0  0  0
   -2.2709  -52.8686   25.5076 H   0  0  0  0  0  0  0  0  0  0  0  0
   -0.2036  -52.7571   26.9653 H   0  0  0  0  0  0  0  0  0  0  0  0
    1.9520  -50.6952   23.7505 H   0  0  0  0  0  0  0  0  0  0  0  0
   -5.8375  -50.8315   23.6262 H   0  0  0  0  0  0  0  0  0  0  0  0
   -5.0866  -52.2624   24.2909 H   0  0  0  0  0  0  0  0  0  0  0  0
   -5.4407  -52.1752   22.5821 H   0  0  0  0  0  0  0  0  0  0  0  0
   -3.2859  -51.9447   23.4088 H   0  0  0  0  0  0  0  0  0  0  0  0
   -4.4792  -49.0540   22.8629 H   0  0  0  0  0  0  0  0  0  0  0  0
   -2.7623  -49.2602   22.6122 H   0  0  0  0  0  0  0  0  0  0  0  0
   -3.4099  -49.2211   24.2346 H   0  0  0  0  0  0  0  0  0  0  0  0
  1  2  1  0  0  0  0
  1 25  1  0  0  0  0
  2  3  2  0  0  0  0
  2  4  1  0  0  0  0
  4  5  1  0  0  0  0
  5 26  1  0  0  0  0
  5 27  1  0  0  0  0
  6  5  1  0  0  0  0
  6  7  1  0  0  0  0
  6 28  1  6  0  0  0
  7  8  1  0  0  0  0
  7 29  1  0  0  0  0
  7 30  1  0  0  0  0
  8  9  1  0  0  0  0
  8 31  1  0  0  0  0
  8 32  1  0  0  0  0
  9 10  1  0  0  0  0
  9 11  1  0  0  0  0
  9 33  1  6  0  0  0
 10 34  1  0  0  0  0
 10 35  1  0  0  0  0
 10 36  1  0  0  0  0
 11 12  1  0  0  0  0
 11  6  1  0  0  0  0
 11 37  1  1  0  0  0
 12  4  1  0  0  0  0
 12 38  1  0  0  0  0
 12 39  1  0  0  0  0
 13 14  2  0  0  0  0
 14 15  1  0  0  0  0
 14 40  1  0  0  0  0
 15 16  2  0  0  0  0
 15 41  1  0  0  0  0
 16 19  1  0  0  0  0
 16 17  1  0  0  0  0
 17 18  2  0  0  0  0
 17 42  1  0  0  0  0
 18  1  1  0  0  0  0
 18 13  1  0  0  0  0
 19 20  3  0  0  0  0
 21 13  1  0  0  0  0
 22 23  1  0  0  0  0
 22 43  1  0  0  0  0
 22 44  1  0  0  0  0
 22 45  1  0  0  0  0
 23 24  1  0  0  0  0
 23 21  1  0  0  0  0
 23 46  1  0  0  0  0
 24 47  1  0  0  0  0
 24 48  1  0  0  0  0
 24 49  1  0  0  0  0
M  CHG  1   9   1
M  END
>  <minimizedAffinity>
-6.72245

$$$$

 OpenBabel09092411003D

 50 53  0  0  0  0  0  0  0  0999 V2000
   -0.8132  -52.3863   25.6008 C   0  0  0  0  0  0  0  0  0  0  0  0
   -0.2759  -52.2314   24.2090 C   0  0  0  0  0  0  0  0  0  0  0  0
    0.5984  -53.2981   23.6194 C   0  0  0  0  0  0  0  0  0  0  0  0
    0.9355  -54.5199   24.4217 N   0  0  0  0  0  0  0  0  0  0  0  0
    0.3982  -54.6748   25.8136 C   0  0  0  0  0  0  0  0  0  0  0  0
   -0.4761  -53.6080   26.4031 N   0  0  0  0  0  0  0  0  0  0  0  0
    1.1356  -53.1431   22.2275 N   0  0  0  0  0  0  0  0  0  0  0  0
    0.3741  -52.3405   21.2146 C   0  0  0  0  0  0  0  0  0  0  0  0
   -0.9247  -51.6929   21.5936 O   0  0  0  0  0  0  0  0  0  0  0  0
    0.9114  -52.1856   19.8228 N   0  0  0  0  0  0  0  0  0  0  0  0
    2.1896  -52.7718   19.3007 C   0  0  0  0  0  0  0  0  0  0  0  0
    2.3330  -52.3657   17.8639 C   0  0  2  0  0  0  0  0  0  0  0  0
    3.2116  -52.4770   16.6533 C   0  0  0  0  0  0  0  0  0  0  0  0
    2.5650  -51.7085   15.5390 C   0  0  0  0  0  0  0  0  0  0  0  0
    1.2868  -51.1223   16.0611 N   0  3  2  0  0  0  0  0  0  0  0  0
    0.3215  -50.2781   15.2829 C   0  0  0  0  0  0  0  0  0  0  0  0
    1.1434  -51.5284   17.4979 C   0  0  1  0  0  0  0  0  0  0  0  0
    0.2648  -51.4171   18.7086 C   0  0  0  0  0  0  0  0  0  0  0  0
   -2.5480  -48.8682   26.2031 C   0  0  0  0  0  0  0  0  0  0  0  0
   -3.4362  -49.1860   27.3694 C   0  0  0  0  0  0  0  0  0  0  0  0
   -3.4500  -50.5706   27.9462 C   0  0  0  0  0  0  0  0  0  0  0  0
   -2.5757  -51.6374   27.3567 C   0  0  0  0  0  0  0  0  0  0  0  0
   -1.6875  -51.3195   26.1904 C   0  0  0  0  0  0  0  0  0  0  0  0
   -1.6737  -49.9350   25.6136 C   0  0  0  0  0  0  0  0  0  0  0  0
   -3.6670  -47.0213   24.7585 C   0  0  0  0  0  0  0  0  0  0  0  0
   -2.5343  -47.4836   25.6264 O   0  0  0  0  0  0  0  0  0  0  0  0
   -0.5078  -51.3908   23.6570 H   0  0  0  0  0  0  0  0  0  0  0  0
    0.6301  -55.5153   26.3656 H   0  0  0  0  0  0  0  0  0  0  0  0
    1.9880  -53.5682   21.9787 H   0  0  0  0  0  0  0  0  0  0  0  0
    2.1567  -53.8387   19.3749 H   0  0  0  0  0  0  0  0  0  0  0  0
    3.0218  -52.4170   19.8720 H   0  0  0  0  0  0  0  0  0  0  0  0
    3.1815  -52.9630   18.1249 H   0  0  0  0  0  0  0  0  0  0  0  0
    3.3155  -53.5045   16.3732 H   0  0  0  0  0  0  0  0  0  0  0  0
    4.1838  -52.0819   16.8620 H   0  0  0  0  0  0  0  0  0  0  0  0
    2.3558  -52.3639   14.7195 H   0  0  0  0  0  0  0  0  0  0  0  0
    3.2168  -50.9326   15.1955 H   0  0  0  0  0  0  0  0  0  0  0  0
    0.6301  -50.5485   15.5321 H   0  0  0  0  0  0  0  0  0  0  0  0
    0.8614  -49.5444   14.7216 H   0  0  0  0  0  0  0  0  0  0  0  0
   -0.3488  -49.7884   15.9581 H   0  0  0  0  0  0  0  0  0  0  0  0
   -0.2367  -50.8993   14.6140 H   0  0  0  0  0  0  0  0  0  0  0  0
    0.2949  -50.9311   17.2368 H   0  0  0  0  0  0  0  0  0  0  0  0
   -0.7000  -51.8281   18.4961 H   0  0  0  0  0  0  0  0  0  0  0  0
    0.1431  -50.3910   18.9865 H   0  0  0  0  0  0  0  0  0  0  0  0
   -4.0378  -48.4520   27.7749 H   0  0  0  0  0  0  0  0  0  0  0  0
   -4.0610  -50.7892   28.7486 H   0  0  0  0  0  0  0  0  0  0  0  0
   -2.5852  -52.5900   27.7535 H   0  0  0  0  0  0  0  0  0  0  0  0
   -1.0627  -49.7164   24.8112 H   0  0  0  0  0  0  0  0  0  0  0  0
   -3.4858  -46.0156   24.4413 H   0  0  0  0  0  0  0  0  0  0  0  0
   -4.5809  -47.0610   25.3136 H   0  0  0  0  0  0  0  0  0  0  0  0
   -3.7423  -47.6575   23.9015 H   0  0  0  0  0  0  0  0  0  0  0  0
  1  2  2  0  0  0  0
  2  3  1  0  0  0  0
  2 27  1  0  0  0  0
  3  7  1  0  0  0  0
  3  4  2  0  0  0  0
  4  5  1  0  0  0  0
  5  6  2  0  0  0  0
  5 28  1  0  0  0  0
  6  1  1  0  0  0  0
  7  8  1  0  0  0  0
  7 29  1  0  0  0  0
  8  9  2  0  0  0  0
  8 10  1  0  0  0  0
 10 11  1  0  0  0  0
 11 30  1  0  0  0  0
 11 31  1  0  0  0  0
 12 11  1  0  0  0  0
 12 13  1  0  0  0  0
 12 32  1  6  0  0  0
 13 14  1  0  0  0  0
 13 33  1  0  0  0  0
 13 34  1  0  0  0  0
 14 15  1  0  0  0  0
 14 35  1  0  0  0  0
 14 36  1  0  0  0  0
 15 16  1  0  0  0  0
 15 17  1  0  0  0  0
 15 37  1  6  0  0  0
 16 38  1  0  0  0  0
 16 39  1  0  0  0  0
 16 40  1  0  0  0  0
 17 18  1  0  0  0  0
 17 12  1  0  0  0  0
 17 41  1  1  0  0  0
 18 10  1  0  0  0  0
 18 42  1  0  0  0  0
 18 43  1  0  0  0  0
 19 20  2  0  0  0  0
 20 21  1  0  0  0  0
 20 44  1  0  0  0  0
 21 22  2  0  0  0  0
 21 45  1  0  0  0  0
 22 23  1  0  0  0  0
 22 46  1  0  0  0  0
 23  1  1  0  0  0  0
 23 24  2  0  0  0  0
 24 19  1  0  0  0  0
 24 47  1  0  0  0  0
 25 26  1  0  0  0  0
 25 48  1  0  0  0  0
 25 49  1  0  0  0  0
 25 50  1  0  0  0  0
 26 19  1  0  0  0  0
M  CHG  1  15   1
M  END
>  <minimizedAffinity>
-8.03578

$$$$

 OpenBabel09092411003D

 49 52  0  0  0  0  0  0  0  0999 V2000
    0.6609  -50.3976   20.1212 C   0  0  0  0  0  0  0  0  0  0  0  0
   -0.0335  -49.1285   19.7248 C   0  0  0  0  0  0  0  0  0  0  0  0
   -0.3358  -48.8586   18.2807 C   0  0  0  0  0  0  0  0  0  0  0  0
    0.0561  -49.8579   17.2328 N   0  0  0  0  0  0  0  0  0  0  0  0
    0.7504  -51.1270   17.6292 C   0  0  0  0  0  0  0  0  0  0  0  0
    1.0528  -51.3969   19.0735 C   0  0  0  0  0  0  0  0  0  0  0  0
   -1.3668  -53.2759   28.2636 C   0  0  0  0  0  0  0  0  0  0  0  0
   -0.1455  -52.6681   27.6400 N   0  3  1  0  0  0  0  0  0  0  0  0
    1.1507  -52.3807   28.3379 C   0  0  0  0  0  0  0  0  0  0  0  0
    2.0914  -51.7760   27.3382 C   0  0  0  0  0  0  0  0  0  0  0  0
    1.3765  -51.6896   26.0223 C   0  0  1  0  0  0  0  0  0  0  0  0
    1.5161  -51.2625   24.5912 C   0  0  0  0  0  0  0  0  0  0  0  0
    0.2198  -51.5499   23.8932 N   0  0  0  0  0  0  0  0  0  0  0  0
   -0.0827  -51.2800   22.4491 C   0  0  0  0  0  0  0  0  0  0  0  0
   -1.4312  -51.6226   21.8884 O   0  0  0  0  0  0  0  0  0  0  0  0
    0.9633  -50.6676   21.5655 N   0  0  0  0  0  0  0  0  0  0  0  0
   -0.7208  -52.1547   24.8930 C   0  0  0  0  0  0  0  0  0  0  0  0
   -0.0060  -52.2410   26.2089 C   0  0  1  0  0  0  0  0  0  0  0  0
    1.1424  -52.1263   16.5815 O   0  0  0  0  0  0  0  0  0  0  0  0
    2.4179  -51.9461   15.8131 C   0  0  0  0  0  0  0  0  0  0  0  0
    3.6979  -52.5259   16.3378 C   0  0  0  0  0  0  0  0  0  0  0  0
    4.9735  -52.3458   15.5695 C   0  0  0  0  0  0  0  0  0  0  0  0
    4.9692  -51.5857   14.2763 C   0  0  0  0  0  0  0  0  0  0  0  0
    3.6891  -51.0059   13.7514 C   0  0  0  0  0  0  0  0  0  0  0  0
    2.4135  -51.1861   14.5199 C   0  0  0  0  0  0  0  0  0  0  0  0
    3.6847  -50.2459   12.4583 C   0  0  0  0  0  0  0  0  0  0  0  0
    3.6804  -49.4859   11.1651 N   0  0  0  0  0  0  0  0  0  0  0  0
   -0.3033  -48.4411   20.4457 H   0  0  0  0  0  0  0  0  0  0  0  0
   -0.8134  -47.9854   18.0080 H   0  0  0  0  0  0  0  0  0  0  0  0
    1.5305  -52.2701   19.3463 H   0  0  0  0  0  0  0  0  0  0  0  0
   -1.1764  -53.4785   29.2969 H   0  0  0  0  0  0  0  0  0  0  0  0
   -1.6079  -54.1885   27.7597 H   0  0  0  0  0  0  0  0  0  0  0  0
   -2.1872  -52.5943   28.1791 H   0  0  0  0  0  0  0  0  0  0  0  0
   -0.9759  -53.0813   28.0644 H   0  0  0  0  0  0  0  0  0  0  0  0
    1.5649  -53.2890   28.7230 H   0  0  0  0  0  0  0  0  0  0  0  0
    0.9921  -51.7069   29.1538 H   0  0  0  0  0  0  0  0  0  0  0  0
    2.9610  -52.3916   27.2393 H   0  0  0  0  0  0  0  0  0  0  0  0
    2.3990  -50.8026   27.6587 H   0  0  0  0  0  0  0  0  0  0  0  0
    2.3626  -51.2961   25.8891 H   0  0  0  0  0  0  0  0  0  0  0  0
    2.3087  -51.8093   24.1247 H   0  0  0  0  0  0  0  0  0  0  0  0
    1.7449  -50.2187   24.5354 H   0  0  0  0  0  0  0  0  0  0  0  0
    1.8484  -50.4428   21.9334 H   0  0  0  0  0  0  0  0  0  0  0  0
   -1.0111  -53.1335   24.5726 H   0  0  0  0  0  0  0  0  0  0  0  0
   -1.6007  -51.5531   24.9868 H   0  0  0  0  0  0  0  0  0  0  0  0
   -0.9922  -52.6342   26.3422 H   0  0  0  0  0  0  0  0  0  0  0  0
    3.7009  -53.0488   17.2275 H   0  0  0  0  0  0  0  0  0  0  0  0
    5.8541  -52.7448   15.9306 H   0  0  0  0  0  0  0  0  0  0  0  0
    5.8468  -51.4616   13.7477 H   0  0  0  0  0  0  0  0  0  0  0  0
    1.5329  -50.7872   14.1589 H   0  0  0  0  0  0  0  0  0  0  0  0
  1  2  2  0  0  0  0
  2  3  1  0  0  0  0
  2 28  1  0  0  0  0
  3  4  2  0  0  0  0
  3 29  1  0  0  0  0
  4  5  1  0  0  0  0
  5 19  1  0  0  0  0
  5  6  2  0  0  0  0
  6  1  1  0  0  0  0
  6 30  1  0  0  0  0
  7  8  1  0  0  0  0
  7 31  1  0  0  0  0
  7 32  1  0  0  0  0
  7 33  1  0  0  0  0
  8  9  1  0  0  0  0
  8 34  1  1  0  0  0
  9 10  1  0  0  0  0
  9 35  1  0  0  0  0
  9 36  1  0  0  0  0
 10 37  1  0  0  0  0
 10 38  1  0  0  0  0
 11 10  1  0  0  0  0
 11 12  1  0  0  0  0
 11 39  1  1  0  0  0
 12 13  1  0  0  0  0
 12 40  1  0  0  0  0
 12 41  1  0  0  0  0
 13 14  1  0  0  0  0
 13 17  1  0  0  0  0
 14 15  2  0  0  0  0
 14 16  1  0  0  0  0
 16  1  1  0  0  0  0
 16 42  1  0  0  0  0
 17 43  1  0  0  0  0
 17 44  1  0  0  0  0
 18 17  1  0  0  0  0
 18  8  1  0  0  0  0
 18 11  1  0  0  0  0
 18 45  1  1  0  0  0
 19 20  1  0  0  0  0
 20 21  2  0  0  0  0
 21 22  1  0  0  0  0
 21 46  1  0  0  0  0
 22 23  2  0  0  0  0
 22 47  1  0  0  0  0
 23 24  1  0  0  0  0
 23 48  1  0  0  0  0
 24 26  1  0  0  0  0
 24 25  2  0  0  0  0
 25 20  1  0  0  0  0
 25 49  1  0  0  0  0
 26 27  3  0  0  0  0
M  CHG  1   8   1
M  END
>  <minimizedAffinity>
-7.64971

$$$$

 OpenBabel09092411003D

 49 52  0  0  0  0  0  0  0  0999 V2000
   -1.2497  -51.0796   20.8288 N   0  0  0  0  0  0  0  0  0  0  0  0
    0.0130  -51.7813   20.4246 C   0  0  0  0  0  0  0  0  0  0  0  0
    0.7252  -52.6668   21.4037 O   0  0  0  0  0  0  0  0  0  0  0  0
    0.5634  -51.5974   19.0415 N   0  0  0  0  0  0  0  0  0  0  0  0
   -0.0355  -50.7480   17.9599 C   0  0  0  0  0  0  0  0  0  0  0  0
    0.8403  -50.8563   16.7470 C   0  0  2  0  0  0  0  0  0  0  0  0
    1.0115  -50.3983   15.3289 C   0  0  0  0  0  0  0  0  0  0  0  0
    2.2574  -51.0316   14.7844 C   0  0  0  0  0  0  0  0  0  0  0  0
    2.8564  -51.8810   15.8660 N   0  3  2  0  0  0  0  0  0  0  0  0
    4.1109  -52.6957   15.7543 C   0  0  0  0  0  0  0  0  0  0  0  0
    1.9805  -51.7727   17.0790 C   0  0  1  0  0  0  0  0  0  0  0  0
    1.8094  -52.2307   18.4970 C   0  0  0  0  0  0  0  0  0  0  0  0
   -1.0350  -51.9845   27.3007 C   0  0  0  0  0  0  0  0  0  0  0  0
   -2.5185  -51.9916   27.5227 C   0  0  0  0  0  0  0  0  0  0  0  0
   -3.4515  -51.8150   26.3615 C   0  0  0  0  0  0  0  0  0  0  0  0
   -2.9011  -51.6311   24.9783 C   0  0  0  0  0  0  0  0  0  0  0  0
   -3.8341  -51.4545   23.8172 N   0  0  0  0  0  0  0  0  0  0  0  0
   -3.2837  -51.2706   22.4340 C   0  0  0  0  0  0  0  0  0  0  0  0
   -4.2167  -51.0940   21.2729 C   0  0  0  0  0  0  0  0  0  0  0  0
   -1.8002  -51.2634   22.2120 C   0  0  0  0  0  0  0  0  0  0  0  0
   -0.8671  -51.4401   23.3731 N   0  0  0  0  0  0  0  0  0  0  0  0
   -1.4176  -51.6240   24.7563 C   0  0  0  0  0  0  0  0  0  0  0  0
   -0.4846  -51.8006   25.9175 C   0  0  0  0  0  0  0  0  0  0  0  0
    1.3814  -52.1024   28.2476 C   0  0  0  0  0  0  0  0  0  0  0  0
   -0.1020  -52.1611   28.4618 O   0  0  0  0  0  0  0  0  0  0  0  0
   -1.7172  -50.4984   20.1862 H   0  0  0  0  0  0  0  0  0  0  0  0
   -0.0837  -49.7291   18.2832 H   0  0  0  0  0  0  0  0  0  0  0  0
   -1.0272  -51.0797   17.7331 H   0  0  0  0  0  0  0  0  0  0  0  0
    0.0270  -50.2026   16.5101 H   0  0  0  0  0  0  0  0  0  0  0  0
    1.1035  -49.3326   15.3001 H   0  0  0  0  0  0  0  0  0  0  0  0
    0.1632  -50.6820   14.7417 H   0  0  0  0  0  0  0  0  0  0  0  0
    2.9525  -50.2726   14.4919 H   0  0  0  0  0  0  0  0  0  0  0  0
    2.0266  -51.6292   13.9274 H   0  0  0  0  0  0  0  0  0  0  0  0
    3.7097  -52.4347   15.7899 H   0  0  0  0  0  0  0  0  0  0  0  0
    3.9253  -53.6871   16.1115 H   0  0  0  0  0  0  0  0  0  0  0  0
    4.8831  -52.2438   16.3412 H   0  0  0  0  0  0  0  0  0  0  0  0
    4.4192  -52.7373   14.7305 H   0  0  0  0  0  0  0  0  0  0  0  0
    2.7937  -52.4265   17.3159 H   0  0  0  0  0  0  0  0  0  0  0  0
    2.6544  -51.9297   19.0803 H   0  0  0  0  0  0  0  0  0  0  0  0
    1.7321  -53.2972   18.5364 H   0  0  0  0  0  0  0  0  0  0  0  0
   -2.8972  -52.1180   28.4743 H   0  0  0  0  0  0  0  0  0  0  0  0
   -4.4721  -51.8200   26.5143 H   0  0  0  0  0  0  0  0  0  0  0  0
   -5.2283  -51.1262   21.6201 H   0  0  0  0  0  0  0  0  0  0  0  0
   -4.0575  -51.8801   20.5647 H   0  0  0  0  0  0  0  0  0  0  0  0
   -4.0299  -50.1497   20.8056 H   0  0  0  0  0  0  0  0  0  0  0  0
    0.5360  -51.7956   25.7647 H   0  0  0  0  0  0  0  0  0  0  0  0
    1.8827  -52.2484   29.1816 H   0  0  0  0  0  0  0  0  0  0  0  0
    1.6463  -51.1465   27.8462 H   0  0  0  0  0  0  0  0  0  0  0  0
    1.6735  -52.8704   27.5622 H   0  0  0  0  0  0  0  0  0  0  0  0
  1  2  1  0  0  0  0
  1 26  1  0  0  0  0
  2  3  2  0  0  0  0
  2  4  1  0  0  0  0
  4  5  1  0  0  0  0
  5 27  1  0  0  0  0
  5 28  1  0  0  0  0
  6  5  1  0  0  0  0
  6  7  1  0  0  0  0
  6 29  1  1  0  0  0
  7  8  1  0  0  0  0
  7 30  1  0  0  0  0
  7 31  1  0  0  0  0
  8  9  1  0  0  0  0
  8 32  1  0  0  0  0
  8 33  1  0  0  0  0
  9 10  1  0  0  0  0
  9 11  1  0  0  0  0
  9 34  1  1  0  0  0
 10 35  1  0  0  0  0
 10 36  1  0  0  0  0
 10 37  1  0  0  0  0
 11 12  1  0  0  0  0
 11  6  1  0  0  0  0
 11 38  1  6  0  0  0
 12  4  1  0  0  0  0
 12 39  1  0  0  0  0
 12 40  1  0  0  0  0
 13 14  2  0  0  0  0
 14 15  1  0  0  0  0
 14 41  1  0  0  0  0
 15 16  2  0  0  0  0
 15 42  1  0  0  0  0
 16 17  1  0  0  0  0
 17 18  2  0  0  0  0
 18 19  1  0  0  0  0
 18 20  1  0  0  0  0
 19 43  1  0  0  0  0
 19 44  1  0  0  0  0
 19 45  1  0  0  0  0
 20  1  1  0  0  0  0
 20 21  2  0  0  0  0
 21 22  1  0  0  0  0
 22 23  2  0  0  0  0
 22 16  1  0  0  0  0
 23 13  1  0  0  0  0
 23 46  1  0  0  0  0
 24 25  1  0  0  0  0
 24 47  1  0  0  0  0
 24 48  1  0  0  0  0
 24 49  1  0  0  0  0
 25 13  1  0  0  0  0
M  CHG  1   9   1
M  END
>  <minimizedAffinity>
-7.79225

$$$$

 OpenBabel09092411003D

 52 54  0  0  0  0  0  0  0  0999 V2000
    1.1467  -51.2920   20.7340 N   0  0  0  0  0  0  0  0  0  0  0  0
    0.8812  -52.5470   21.5115 C   0  0  0  0  0  0  0  0  0  0  0  0
    0.6653  -53.8445   20.7905 O   0  0  0  0  0  0  0  0  0  0  0  0
    0.8317  -52.5045   23.0101 N   0  0  0  0  0  0  0  0  0  0  0  0
    1.0274  -51.2873   23.8646 C   0  0  0  0  0  0  0  0  0  0  0  0
    0.8943  -51.7023   25.2999 C   0  0  2  0  0  0  0  0  0  0  0  0
    0.9331  -51.2065   26.7150 C   0  0  0  0  0  0  0  0  0  0  0  0
    0.6791  -52.3738   27.6223 C   0  0  0  0  0  0  0  0  0  0  0  0
    0.4834  -53.5910   26.7678 N   0  3  2  0  0  0  0  0  0  0  0  0
    0.2038  -54.9795   27.2618 C   0  0  0  0  0  0  0  0  0  0  0  0
    0.6164  -53.1760   25.3325 C   0  0  2  0  0  0  0  0  0  0  0  0
    0.5777  -53.6718   23.9173 C   0  0  0  0  0  0  0  0  0  0  0  0
    2.3400  -52.1336   17.0438 C   0  0  0  0  0  0  0  0  0  0  0  0
    1.2955  -51.4193   16.2383 C   0  0  0  0  0  0  0  0  0  0  0  0
    0.2014  -50.6626   16.9314 C   0  0  0  0  0  0  0  0  0  0  0  0
    0.1517  -50.6202   18.4299 C   0  0  0  0  0  0  0  0  0  0  0  0
    1.1962  -51.3344   19.2354 C   0  0  0  0  0  0  0  0  0  0  0  0
    2.2904  -52.0911   18.5424 C   0  0  0  0  0  0  0  0  0  0  0  0
    3.4341  -52.8902   16.3508 O   0  0  0  0  0  0  0  0  0  0  0  0
    5.5216  -52.9147   14.8042 C   0  0  0  0  0  0  0  0  0  0  0  0
    4.4049  -52.1642   15.4673 C   0  0  0  0  0  0  0  0  0  0  0  0
   -0.9424  -49.8635   19.1230 O   0  0  0  0  0  0  0  0  0  0  0  0
   -0.8472  -48.3738   19.2700 C   0  0  0  0  0  0  0  0  0  0  0  0
    0.0067  -47.7798   20.3507 C   0  0  0  0  0  0  0  0  0  0  0  0
    1.2885  -50.4404   21.2073 H   0  0  0  0  0  0  0  0  0  0  0  0
    0.2846  -50.5544   23.6281 H   0  0  0  0  0  0  0  0  0  0  0  0
    1.9930  -50.8611   23.6889 H   0  0  0  0  0  0  0  0  0  0  0  0
    1.0923  -50.6510   25.2766 H   0  0  0  0  0  0  0  0  0  0  0  0
    0.1776  -50.4628   26.8600 H   0  0  0  0  0  0  0  0  0  0  0  0
    1.8858  -50.7693   26.9297 H   0  0  0  0  0  0  0  0  0  0  0  0
   -0.1994  -52.1952   28.2065 H   0  0  0  0  0  0  0  0  0  0  0  0
    1.5059  -52.5150   28.2867 H   0  0  0  0  0  0  0  0  0  0  0  0
    0.2932  -54.5350   27.1041 H   0  0  0  0  0  0  0  0  0  0  0  0
    0.3238  -55.6751   26.4576 H   0  0  0  0  0  0  0  0  0  0  0  0
   -0.7989  -55.0313   27.6316 H   0  0  0  0  0  0  0  0  0  0  0  0
    0.8871  -55.2225   28.0485 H   0  0  0  0  0  0  0  0  0  0  0  0
    0.4181  -54.2272   25.3558 H   0  0  0  0  0  0  0  0  0  0  0  0
   -0.3829  -54.0933   23.7064 H   0  0  0  0  0  0  0  0  0  0  0  0
    1.3204  -54.4274   23.7677 H   0  0  0  0  0  0  0  0  0  0  0  0
    1.3296  -51.4485   15.2073 H   0  0  0  0  0  0  0  0  0  0  0  0
   -0.5172  -50.1711   16.3772 H   0  0  0  0  0  0  0  0  0  0  0  0
    3.0090  -52.5824   19.0966 H   0  0  0  0  0  0  0  0  0  0  0  0
    6.1074  -52.2379   14.2179 H   0  0  0  0  0  0  0  0  0  0  0  0
    5.1139  -53.6745   14.1707 H   0  0  0  0  0  0  0  0  0  0  0  0
    6.1401  -53.3670   15.5510 H   0  0  0  0  0  0  0  0  0  0  0  0
    3.8317  -51.7098   14.6864 H   0  0  0  0  0  0  0  0  0  0  0  0
    4.9152  -51.5128   16.1457 H   0  0  0  0  0  0  0  0  0  0  0  0
   -1.8424  -48.0150   19.4305 H   0  0  0  0  0  0  0  0  0  0  0  0
   -0.3534  -48.0690   18.3710 H   0  0  0  0  0  0  0  0  0  0  0  0
   -0.4042  -48.0281   21.3069 H   0  0  0  0  0  0  0  0  0  0  0  0
    0.0338  -46.7159   20.2395 H   0  0  0  0  0  0  0  0  0  0  0  0
    0.9996  -48.1716   20.2766 H   0  0  0  0  0  0  0  0  0  0  0  0
  1  2  1  0  0  0  0
  1 25  1  0  0  0  0
  2  3  2  0  0  0  0
  2  4  1  0  0  0  0
  4  5  1  0  0  0  0
  5 26  1  0  0  0  0
  5 27  1  0  0  0  0
  6  5  1  0  0  0  0
  6  7  1  0  0  0  0
  6 28  1  6  0  0  0
  7  8  1  0  0  0  0
  7 29  1  0  0  0  0
  7 30  1  0  0  0  0
  8  9  1  0  0  0  0
  8 31  1  0  0  0  0
  8 32  1  0  0  0  0
  9 10  1  0  0  0  0
  9 11  1  0  0  0  0
  9 33  1  6  0  0  0
 10 34  1  0  0  0  0
 10 35  1  0  0  0  0
 10 36  1  0  0  0  0
 11 12  1  0  0  0  0
 11  6  1  0  0  0  0
 11 37  1  6  0  0  0
 12  4  1  0  0  0  0
 12 38  1  0  0  0  0
 12 39  1  0  0  0  0
 13 14  2  0  0  0  0
 14 15  1  0  0  0  0
 14 40  1  0  0  0  0
 15 16  2  0  0  0  0
 15 41  1  0  0  0  0
 16 22  1  0  0  0  0
 16 17  1  0  0  0  0
 17  1  1  0  0  0  0
 17 18  2  0  0  0  0
 18 13  1  0  0  0  0
 18 42  1  0  0  0  0
 19 13  1  0  0  0  0
 20 21  1  0  0  0  0
 20 43  1  0  0  0  0
 20 44  1  0  0  0  0
 20 45  1  0  0  0  0
 21 19  1  0  0  0  0
 21 46  1  0  0  0  0
 21 47  1  0  0  0  0
 22 23  1  0  0  0  0
 23 24  1  0  0  0  0
 23 48  1  0  0  0  0
 23 49  1  0  0  0  0
 24 50  1  0  0  0  0
 24 51  1  0  0  0  0
 24 52  1  0  0  0  0
M  CHG  1   9   1
M  END
>  <minimizedAffinity>
-7.10140

$$$$

 OpenBabel09092411003D

 52 55  0  0  0  0  0  0  0  0999 V2000
    0.7423  -51.1175   17.6122 C   0  0  0  0  0  0  0  0  0  0  0  0
    1.0437  -51.3766   19.0586 C   0  0  0  0  0  0  0  0  0  0  0  0
    0.6231  -50.3842   20.1018 C   0  0  0  0  0  0  0  0  0  0  0  0
   -0.0989  -49.1327   19.6987 C   0  0  0  0  0  0  0  0  0  0  0  0
   -0.4002  -48.8737   18.2523 C   0  0  0  0  0  0  0  0  0  0  0  0
    0.0204  -49.8660   17.2091 N   0  0  0  0  0  0  0  0  0  0  0  0
    0.9245  -50.6434   21.5482 N   0  0  0  0  0  0  0  0  0  0  0  0
   -0.1126  -51.2744   22.4292 C   0  0  0  0  0  0  0  0  0  0  0  0
   -1.4513  -51.6464   21.8637 O   0  0  0  0  0  0  0  0  0  0  0  0
    0.1888  -51.5336   23.8755 N   0  0  0  0  0  0  0  0  0  0  0  0
    1.4757  -51.2174   24.5783 C   0  0  0  0  0  0  0  0  0  0  0  0
    1.3386  -51.6428   26.0101 C   0  0  1  0  0  0  0  0  0  0  0  0
    2.0491  -51.7103   27.3294 C   0  0  0  0  0  0  0  0  0  0  0  0
    1.1166  -52.3311   28.3270 C   0  0  0  0  0  0  0  0  0  0  0  0
   -0.1703  -52.6473   27.6242 N   0  3  1  0  0  0  0  0  0  0  0  0
   -1.3817  -53.2781   28.2443 C   0  0  0  0  0  0  0  0  0  0  0  0
   -0.0331  -52.2219   26.1923 C   0  0  1  0  0  0  0  0  0  0  0  0
   -0.7437  -52.1544   24.8730 C   0  0  0  0  0  0  0  0  0  0  0  0
    1.1629  -52.1099   16.5690 O   0  0  0  0  0  0  0  0  0  0  0  0
    3.6581  -50.9243   13.7198 C   0  0  0  0  0  0  0  0  0  0  0  0
    4.9592  -51.4566   14.2429 C   0  0  0  0  0  0  0  0  0  0  0  0
    4.9949  -52.2067   15.5413 C   0  0  0  0  0  0  0  0  0  0  0  0
    3.7295  -52.4245   16.3168 C   0  0  0  0  0  0  0  0  0  0  0  0
    2.4283  -51.8921   15.7936 C   0  0  0  0  0  0  0  0  0  0  0  0
    2.3926  -51.1420   14.4951 C   0  0  0  0  0  0  0  0  0  0  0  0
    2.9790  -48.8208   12.3544 C   0  0  0  0  0  0  0  0  0  0  0  0
    3.6223  -50.1742   12.4213 O   0  0  0  0  0  0  0  0  0  0  0  0
    1.5404  -52.2376   19.3360 H   0  0  0  0  0  0  0  0  0  0  0  0
   -0.3883  -48.4499   20.4164 H   0  0  0  0  0  0  0  0  0  0  0  0
   -0.8969  -48.0127   17.9749 H   0  0  0  0  0  0  0  0  0  0  0  0
    1.8031  -50.3993   21.9193 H   0  0  0  0  0  0  0  0  0  0  0  0
    1.6677  -50.1659   24.5287 H   0  0  0  0  0  0  0  0  0  0  0  0
    2.2896  -51.7336   24.1135 H   0  0  0  0  0  0  0  0  0  0  0  0
    2.3171  -51.2298   25.8800 H   0  0  0  0  0  0  0  0  0  0  0  0
    2.3178  -50.7248   27.6479 H   0  0  0  0  0  0  0  0  0  0  0  0
    2.9415  -52.2940   27.2415 H   0  0  0  0  0  0  0  0  0  0  0  0
    0.9339  -51.6461   29.1285 H   0  0  0  0  0  0  0  0  0  0  0  0
    1.5469  -53.2224   28.7335 H   0  0  0  0  0  0  0  0  0  0  0  0
   -0.9939  -53.0763   28.0461 H   0  0  0  0  0  0  0  0  0  0  0  0
   -2.1883  -53.2681   27.5414 H   0  0  0  0  0  0  0  0  0  0  0  0
   -1.6629  -52.7276   29.1177 H   0  0  0  0  0  0  0  0  0  0  0  0
   -1.1580  -54.2885   28.5162 H   0  0  0  0  0  0  0  0  0  0  0  0
   -1.0115  -52.6350   26.3223 H   0  0  0  0  0  0  0  0  0  0  0  0
   -1.6262  -51.5566   24.9661 H   0  0  0  0  0  0  0  0  0  0  0  0
   -1.0298  -53.1350   24.5543 H   0  0  0  0  0  0  0  0  0  0  0  0
    5.8298  -51.3067   13.7095 H   0  0  0  0  0  0  0  0  0  0  0  0
    5.8901  -52.5730   15.9011 H   0  0  0  0  0  0  0  0  0  0  0  0
    3.7541  -52.9406   17.2102 H   0  0  0  0  0  0  0  0  0  0  0  0
    1.4974  -50.7757   14.1352 H   0  0  0  0  0  0  0  0  0  0  0  0
    3.0480  -48.4420   11.3561 H   0  0  0  0  0  0  0  0  0  0  0  0
    3.4805  -48.1540   13.0243 H   0  0  0  0  0  0  0  0  0  0  0  0
    1.9496  -48.9009   12.6351 H   0  0  0  0  0  0  0  0  0  0  0  0
  1  2  2  0  0  0  0
  2  3  1  0  0  0  0
  2 28  1  0  0  0  0
  3  7  1  0  0  0  0
  3  4  2  0  0  0  0
  4  5  1  0  0  0  0
  4 29  1  0  0  0  0
  5  6  2  0  0  0  0
  5 30  1  0  0  0  0
  6  1  1  0  0  0  0
  7  8  1  0  0  0  0
  7 31  1  0  0  0  0
  8  9  2  0  0  0  0
  8 10  1  0  0  0  0
 10 11  1  0  0  0  0
 11 32  1  0  0  0  0
 11 33  1  0  0  0  0
 12 11  1  0  0  0  0
 12 13  1  0  0  0  0
 12 34  1  6  0  0  0
 13 14  1  0  0  0  0
 13 35  1  0  0  0  0
 13 36  1  0  0  0  0
 14 15  1  0  0  0  0
 14 37  1  0  0  0  0
 14 38  1  0  0  0  0
 15 16  1  0  0  0  0
 15 17  1  0  0  0  0
 15 39  1  6  0  0  0
 16 40  1  0  0  0  0
 16 41  1  0  0  0  0
 16 42  1  0  0  0  0
 17 18  1  0  0  0  0
 17 12  1  0  0  0  0
 17 43  1  6  0  0  0
 18 10  1  0  0  0  0
 18 44  1  0  0  0  0
 18 45  1  0  0  0  0
 19  1  1  0  0  0  0
 20 21  2  0  0  0  0
 21 22  1  0  0  0  0
 21 46  1  0  0  0  0
 22 23  2  0  0  0  0
 22 47  1  0  0  0  0
 23 24  1  0  0  0  0
 23 48  1  0  0  0  0
 24 19  1  0  0  0  0
 24 25  2  0  0  0  0
 25 20  1  0  0  0  0
 25 49  1  0  0  0  0
 26 27  1  0  0  0  0
 26 50  1  0  0  0  0
 26 51  1  0  0  0  0
 26 52  1  0  0  0  0
 27 20  1  0  0  0  0
M  CHG  1  15   1
M  END
>  <minimizedAffinity>
-7.63794

$$$$

 OpenBabel09092411003D

 48 51  0  0  0  0  0  0  0  0999 V2000
    1.5396  -51.4784   19.2183 C   0  0  0  0  0  0  0  0  0  0  0  0
    2.4594  -52.4973   18.6135 C   0  0  0  0  0  0  0  0  0  0  0  0
    2.6006  -52.5891   17.1230 C   0  0  0  0  0  0  0  0  0  0  0  0
    1.8220  -51.6621   16.2373 C   0  0  0  0  0  0  0  0  0  0  0  0
    0.9022  -50.6432   16.8421 C   0  0  0  0  0  0  0  0  0  0  0  0
    0.7610  -50.5514   18.3327 C   0  0  0  0  0  0  0  0  0  0  0  0
    0.0209  -54.8508   27.2815 C   0  0  0  0  0  0  0  0  0  0  0  0
    0.3435  -53.4814   26.7611 N   0  3  2  0  0  0  0  0  0  0  0  0
    0.4977  -52.2383   27.5863 C   0  0  0  0  0  0  0  0  0  0  0  0
    0.8179  -51.1034   26.6594 C   0  0  0  0  0  0  0  0  0  0  0  0
    0.8617  -51.6450   25.2612 C   0  0  2  0  0  0  0  0  0  0  0  0
    1.0866  -51.2782   23.8243 C   0  0  0  0  0  0  0  0  0  0  0  0
    0.9325  -52.5214   22.9990 N   0  0  0  0  0  0  0  0  0  0  0  0
    1.0737  -52.6133   21.5086 C   0  0  0  0  0  0  0  0  0  0  0  0
    0.8904  -53.9321   20.8177 O   0  0  0  0  0  0  0  0  0  0  0  0
    1.3983  -51.3865   20.7089 N   0  0  0  0  0  0  0  0  0  0  0  0
    0.6122  -53.6563   23.9260 C   0  0  0  0  0  0  0  0  0  0  0  0
    0.5684  -53.1147   25.3242 C   0  0  1  0  0  0  0  0  0  0  0  0
    0.1237  -49.7161   15.9565 O   0  0  0  0  0  0  0  0  0  0  0  0
   -1.3391  -49.9532   15.7240 C   0  0  0  0  0  0  0  0  0  0  0  0
   -1.7995  -50.6207   14.4621 C   0  0  0  0  0  0  0  0  0  0  0  0
   -3.2622  -50.8578   14.2295 C   0  0  0  0  0  0  0  0  0  0  0  0
   -4.2647  -50.4273   15.2590 N   0  0  0  0  0  0  0  0  0  0  0  0
   -3.8044  -49.7598   16.5210 C   0  0  0  0  0  0  0  0  0  0  0  0
   -2.3416  -49.5228   16.7535 N   0  0  0  0  0  0  0  0  0  0  0  0
   -3.7226  -51.5252   12.9676 C   0  0  0  0  0  0  0  0  0  0  0  0
   -4.1829  -52.1927   11.7056 N   0  0  0  0  0  0  0  0  0  0  0  0
    2.9951  -53.1351   19.2228 H   0  0  0  0  0  0  0  0  0  0  0  0
    3.2335  -53.2901   16.7069 H   0  0  0  0  0  0  0  0  0  0  0  0
    1.9192  -51.7253   15.2118 H   0  0  0  0  0  0  0  0  0  0  0  0
    0.1282  -49.8504   18.7489 H   0  0  0  0  0  0  0  0  0  0  0  0
   -0.0851  -54.8122   28.3455 H   0  0  0  0  0  0  0  0  0  0  0  0
    0.8117  -55.5248   27.0261 H   0  0  0  0  0  0  0  0  0  0  0  0
   -0.8940  -55.1922   26.8440 H   0  0  0  0  0  0  0  0  0  0  0  0
    0.1246  -54.4126   27.1151 H   0  0  0  0  0  0  0  0  0  0  0  0
    1.2924  -52.3667   28.2912 H   0  0  0  0  0  0  0  0  0  0  0  0
   -0.4044  -52.0353   28.1247 H   0  0  0  0  0  0  0  0  0  0  0  0
    1.7676  -50.6822   26.9156 H   0  0  0  0  0  0  0  0  0  0  0  0
    0.0744  -50.3379   26.7384 H   0  0  0  0  0  0  0  0  0  0  0  0
    1.0712  -50.5967   25.2161 H   0  0  0  0  0  0  0  0  0  0  0  0
    2.0722  -50.8804   23.7011 H   0  0  0  0  0  0  0  0  0  0  0  0
    0.3800  -50.5367   23.5149 H   0  0  0  0  0  0  0  0  0  0  0  0
    1.5186  -50.5209   21.1623 H   0  0  0  0  0  0  0  0  0  0  0  0
    1.3682  -54.4099   23.8521 H   0  0  0  0  0  0  0  0  0  0  0  0
   -0.3296  -54.0933   23.6670 H   0  0  0  0  0  0  0  0  0  0  0  0
    0.3589  -54.1630   25.3693 H   0  0  0  0  0  0  0  0  0  0  0  0
   -1.1098  -50.9169   13.7538 H   0  0  0  0  0  0  0  0  0  0  0  0
   -4.4941  -49.4636   17.2293 H   0  0  0  0  0  0  0  0  0  0  0  0
  1  2  2  0  0  0  0
  2  3  1  0  0  0  0
  2 28  1  0  0  0  0
  3  4  2  0  0  0  0
  3 29  1  0  0  0  0
  4  5  1  0  0  0  0
  4 30  1  0  0  0  0
  5 19  1  0  0  0  0
  5  6  2  0  0  0  0
  6  1  1  0  0  0  0
  6 31  1  0  0  0  0
  7  8  1  0  0  0  0
  7 32  1  0  0  0  0
  7 33  1  0  0  0  0
  7 34  1  0  0  0  0
  8  9  1  0  0  0  0
  8 35  1  1  0  0  0
  9 10  1  0  0  0  0
  9 36  1  0  0  0  0
  9 37  1  0  0  0  0
 10 38  1  0  0  0  0
 10 39  1  0  0  0  0
 11 10  1  0  0  0  0
 11 12  1  0  0  0  0
 11 40  1  1  0  0  0
 12 13  1  0  0  0  0
 12 41  1  0  0  0  0
 12 42  1  0  0  0  0
 13 14  1  0  0  0  0
 13 17  1  0  0  0  0
 14 15  2  0  0  0  0
 14 16  1  0  0  0  0
 16  1  1  0  0  0  0
 16 43  1  0  0  0  0
 17 44  1  0  0  0  0
 17 45  1  0  0  0  0
 18 17  1  0  0  0  0
 18  8  1  0  0  0  0
 18 11  1  0  0  0  0
 18 46  1  6  0  0  0
 19 20  1  0  0  0  0
 20 21  2  0  0  0  0
 21 22  1  0  0  0  0
 21 47  1  0  0  0  0
 22 26  1  0  0  0  0
 22 23  2  0  0  0  0
 23 24  1  0  0  0  0
 24 25  2  0  0  0  0
 24 48  1  0  0  0  0
 25 20  1  0  0  0  0
 26 27  3  0  0  0  0
M  CHG  1   8   1
M  END
>  <minimizedAffinity>
-7.81502

$$$$

 OpenBabel09092411003D

 48 51  0  0  0  0  0  0  0  0999 V2000
    1.5648  -51.4825   18.8357 C   0  0  0  0  0  0  0  0  0  0  0  0
    2.5500  -52.4547   18.2576 C   0  0  0  0  0  0  0  0  0  0  0  0
    2.7223  -52.5533   16.7709 C   0  0  0  0  0  0  0  0  0  0  0  0
    1.9092  -51.6797   15.8621 N   0  0  0  0  0  0  0  0  0  0  0  0
    0.9240  -50.7076   16.4401 C   0  0  0  0  0  0  0  0  0  0  0  0
    0.7517  -50.6090   17.9269 C   0  0  0  0  0  0  0  0  0  0  0  0
    0.2486  -54.8720   26.9273 C   0  0  0  0  0  0  0  0  0  0  0  0
    0.4478  -53.4856   26.3906 N   0  3  1  0  0  0  0  0  0  0  0  0
    0.4708  -52.2221   27.1989 C   0  0  0  0  0  0  0  0  0  0  0  0
    0.6963  -51.0748   26.2593 C   0  0  0  0  0  0  0  0  0  0  0  0
    0.8127  -51.6291   24.8704 C   0  0  2  0  0  0  0  0  0  0  0  0
    1.0240  -51.2626   23.4313 C   0  0  0  0  0  0  0  0  0  0  0  0
    1.0010  -52.5260   22.6229 N   0  0  0  0  0  0  0  0  0  0  0  0
    1.1733  -52.6247   21.1362 C   0  0  0  0  0  0  0  0  0  0  0  0
    1.1265  -53.9645   20.4630 O   0  0  0  0  0  0  0  0  0  0  0  0
    1.3924  -51.3838   20.3225 N   0  0  0  0  0  0  0  0  0  0  0  0
    0.7756  -53.6733   23.5626 C   0  0  0  0  0  0  0  0  0  0  0  0
    0.6591  -53.1190   24.9515 C   0  0  1  0  0  0  0  0  0  0  0  0
    0.1110  -49.8340   15.5313 O   0  0  0  0  0  0  0  0  0  0  0  0
   -1.3626  -50.0721   15.3827 C   0  0  0  0  0  0  0  0  0  0  0  0
   -2.3123  -49.5738   16.4314 C   0  0  0  0  0  0  0  0  0  0  0  0
   -3.7858  -49.8119   16.2829 C   0  0  0  0  0  0  0  0  0  0  0  0
   -4.3096  -50.5483   15.0856 N   0  0  0  0  0  0  0  0  0  0  0  0
   -3.3598  -51.0467   14.0369 C   0  0  0  0  0  0  0  0  0  0  0  0
   -1.8863  -50.8086   14.1855 C   0  0  0  0  0  0  0  0  0  0  0  0
   -3.8836  -51.7831   12.8398 C   0  0  0  0  0  0  0  0  0  0  0  0
   -4.4075  -52.5194   11.6426 N   0  0  0  0  0  0  0  0  0  0  0  0
    3.1093  -53.0558   18.8828 H   0  0  0  0  0  0  0  0  0  0  0  0
    3.4002  -53.2221   16.3732 H   0  0  0  0  0  0  0  0  0  0  0  0
    0.0738  -49.9402   18.3246 H   0  0  0  0  0  0  0  0  0  0  0  0
    0.1229  -54.8288   27.9890 H   0  0  0  0  0  0  0  0  0  0  0  0
    1.1036  -55.4713   26.6934 H   0  0  0  0  0  0  0  0  0  0  0  0
   -0.6229  -55.3049   26.4823 H   0  0  0  0  0  0  0  0  0  0  0  0
    0.3120  -54.4286   26.7550 H   0  0  0  0  0  0  0  0  0  0  0  0
    1.2631  -52.2647   27.9168 H   0  0  0  0  0  0  0  0  0  0  0  0
   -0.4547  -52.0982   27.7215 H   0  0  0  0  0  0  0  0  0  0  0  0
    1.5978  -50.5619   26.5223 H   0  0  0  0  0  0  0  0  0  0  0  0
   -0.1174  -50.3823   26.3162 H   0  0  0  0  0  0  0  0  0  0  0  0
    0.9223  -50.5663   24.8126 H   0  0  0  0  0  0  0  0  0  0  0  0
    1.9693  -50.7748   23.3159 H   0  0  0  0  0  0  0  0  0  0  0  0
    0.2551  -50.5959   23.1008 H   0  0  0  0  0  0  0  0  0  0  0  0
    1.4231  -50.5045   20.7643 H   0  0  0  0  0  0  0  0  0  0  0  0
    1.6007  -54.3526   23.5108 H   0  0  0  0  0  0  0  0  0  0  0  0
   -0.1163  -54.2014   23.2972 H   0  0  0  0  0  0  0  0  0  0  0  0
    0.5493  -54.1818   25.0093 H   0  0  0  0  0  0  0  0  0  0  0  0
   -1.9519  -49.0672   17.2551 H   0  0  0  0  0  0  0  0  0  0  0  0
   -4.4392  -49.4691   17.0044 H   0  0  0  0  0  0  0  0  0  0  0  0
   -1.2328  -51.1515   13.4641 H   0  0  0  0  0  0  0  0  0  0  0  0
  1  2  2  0  0  0  0
  2  3  1  0  0  0  0
  2 28  1  0  0  0  0
  3  4  2  0  0  0  0
  3 29  1  0  0  0  0
  4  5  1  0  0  0  0
  5 19  1  0  0  0  0
  5  6  2  0  0  0  0
  6  1  1  0  0  0  0
  6 30  1  0  0  0  0
  7  8  1  0  0  0  0
  7 31  1  0  0  0  0
  7 32  1  0  0  0  0
  7 33  1  0  0  0  0
  8  9  1  0  0  0  0
  8 34  1  6  0  0  0
  9 10  1  0  0  0  0
  9 35  1  0  0  0  0
  9 36  1  0  0  0  0
 10 37  1  0  0  0  0
 10 38  1  0  0  0  0
 11 10  1  0  0  0  0
 11 12  1  0  0  0  0
 11 39  1  1  0  0  0
 12 13  1  0  0  0  0
 12 40  1  0  0  0  0
 12 41  1  0  0  0  0
 13 14  1  0  0  0  0
 13 17  1  0  0  0  0
 14 15  2  0  0  0  0
 14 16  1  0  0  0  0
 16  1  1  0  0  0  0
 16 42  1  0  0  0  0
 17 43  1  0  0  0  0
 17 44  1  0  0  0  0
 18 17  1  0  0  0  0
 18  8  1  0  0  0  0
 18 11  1  0  0  0  0
 18 45  1  6  0  0  0
 19 20  1  0  0  0  0
 20 21  2  0  0  0  0
 21 22  1  0  0  0  0
 21 46  1  0  0  0  0
 22 23  2  0  0  0  0
 22 47  1  0  0  0  0
 23 24  1  0  0  0  0
 24 26  1  0  0  0  0
 24 25  2  0  0  0  0
 25 20  1  0  0  0  0
 25 48  1  0  0  0  0
 26 27  3  0  0  0  0
M  CHG  1   8   1
M  END
>  <minimizedAffinity>
-7.72514

$$$$

 OpenBabel09092411003D

 52 55  0  0  0  0  0  0  0  0999 V2000
    4.4512  -52.5253   15.2251 C   0  0  0  0  0  0  0  0  0  0  0  0
    3.1451  -51.8557   15.5342 N   0  3  1  0  0  0  0  0  0  0  0  0
    2.3468  -51.0031   14.5930 C   0  0  0  0  0  0  0  0  0  0  0  0
    1.1162  -50.5417   15.3160 C   0  0  0  0  0  0  0  0  0  0  0  0
    1.1539  -51.1092   16.7040 C   0  0  2  0  0  0  0  0  0  0  0  0
    0.2084  -50.9913   17.8625 C   0  0  0  0  0  0  0  0  0  0  0  0
    0.5169  -51.6856   19.1559 N   0  0  0  0  0  0  0  0  0  0  0  0
   -0.4286  -51.5677   20.3145 C   0  0  0  0  0  0  0  0  0  0  0  0
   -0.1202  -52.2620   21.6078 O   0  0  0  0  0  0  0  0  0  0  0  0
   -1.6825  -50.7556   20.1796 N   0  0  0  0  0  0  0  0  0  0  0  0
    1.7708  -52.4977   19.2907 C   0  0  0  0  0  0  0  0  0  0  0  0
    2.7162  -52.6155   18.1322 C   0  0  0  0  0  0  0  0  0  0  0  0
    2.4078  -51.9213   16.8389 C   0  0  2  0  0  0  0  0  0  0  0  0
   -2.6280  -50.6377   21.3381 C   0  0  0  0  0  0  0  0  0  0  0  0
   -4.0790  -50.9733   21.1591 C   0  0  0  0  0  0  0  0  0  0  0  0
   -5.0245  -50.8554   22.3177 C   0  0  0  0  0  0  0  0  0  0  0  0
   -4.5189  -50.4020   23.6552 C   0  0  0  0  0  0  0  0  0  0  0  0
   -3.0680  -50.0664   23.8341 C   0  0  0  0  0  0  0  0  0  0  0  0
   -2.1225  -50.1843   22.6756 C   0  0  0  0  0  0  0  0  0  0  0  0
   -2.5624  -49.6130   25.1716 O   0  0  0  0  0  0  0  0  0  0  0  0
   -1.8416  -50.5767   26.0670 C   0  0  0  0  0  0  0  0  0  0  0  0
   -2.6199  -51.4878   26.9693 C   0  0  0  0  0  0  0  0  0  0  0  0
   -1.8991  -52.4515   27.8647 C   0  0  0  0  0  0  0  0  0  0  0  0
   -0.4001  -52.5040   27.8578 N   0  0  0  0  0  0  0  0  0  0  0  0
    0.3782  -51.5928   26.9556 C   0  0  0  0  0  0  0  0  0  0  0  0
   -0.3426  -50.6292   26.0602 C   0  0  0  0  0  0  0  0  0  0  0  0
    1.8773  -51.6454   26.9488 C   0  0  0  0  0  0  0  0  0  0  0  0
    3.3763  -51.6979   26.9420 N   0  0  0  0  0  0  0  0  0  0  0  0
    4.7365  -52.3029   14.2181 H   0  0  0  0  0  0  0  0  0  0  0  0
    4.3454  -53.5838   15.3403 H   0  0  0  0  0  0  0  0  0  0  0  0
    5.2034  -52.1669   15.8964 H   0  0  0  0  0  0  0  0  0  0  0  0
    4.0336  -52.3103   15.3237 H   0  0  0  0  0  0  0  0  0  0  0  0
    2.0693  -51.5746   13.7320 H   0  0  0  0  0  0  0  0  0  0  0  0
    2.9256  -50.1628   14.2708 H   0  0  0  0  0  0  0  0  0  0  0  0
    0.2429  -50.8897   14.8050 H   0  0  0  0  0  0  0  0  0  0  0  0
    1.0852  -49.4728   15.3522 H   0  0  0  0  0  0  0  0  0  0  0  0
    0.2300  -50.6767   17.0268 H   0  0  0  0  0  0  0  0  0  0  0  0
   -0.7370  -51.3653   17.5290 H   0  0  0  0  0  0  0  0  0  0  0  0
    0.2637  -49.9544   18.1206 H   0  0  0  0  0  0  0  0  0  0  0  0
   -1.8849  -50.3000   19.3307 H   0  0  0  0  0  0  0  0  0  0  0  0
    1.4689  -53.4921   19.5453 H   0  0  0  0  0  0  0  0  0  0  0  0
    2.3385  -51.9548   20.0172 H   0  0  0  0  0  0  0  0  0  0  0  0
    2.8037  -53.6585   17.9097 H   0  0  0  0  0  0  0  0  0  0  0  0
    3.5939  -52.1112   18.4788 H   0  0  0  0  0  0  0  0  0  0  0  0
    3.1181  -52.5472   17.3375 H   0  0  0  0  0  0  0  0  0  0  0  0
   -4.4268  -51.2853   20.2389 H   0  0  0  0  0  0  0  0  0  0  0  0
   -6.0228  -51.0862   22.1946 H   0  0  0  0  0  0  0  0  0  0  0  0
   -5.1693  -50.3210   24.4523 H   0  0  0  0  0  0  0  0  0  0  0  0
   -1.1242  -49.9535   22.7987 H   0  0  0  0  0  0  0  0  0  0  0  0
   -3.6513  -51.4516   26.9740 H   0  0  0  0  0  0  0  0  0  0  0  0
   -2.4345  -53.0784   28.4855 H   0  0  0  0  0  0  0  0  0  0  0  0
    0.1928  -50.0023   25.4394 H   0  0  0  0  0  0  0  0  0  0  0  0
  1  2  1  0  0  0  0
  1 29  1  0  0  0  0
  1 30  1  0  0  0  0
  1 31  1  0  0  0  0
  2  3  1  0  0  0  0
  2 32  1  1  0  0  0
  3  4  1  0  0  0  0
  3 33  1  0  0  0  0
  3 34  1  0  0  0  0
  4 35  1  0  0  0  0
  4 36  1  0  0  0  0
  5  4  1  0  0  0  0
  5  6  1  0  0  0  0
  5 37  1  6  0  0  0
  6  7  1  0  0  0  0
  6 38  1  0  0  0  0
  6 39  1  0  0  0  0
  7  8  1  0  0  0  0
  7 11  1  0  0  0  0
  8  9  2  0  0  0  0
  8 10  1  0  0  0  0
 10 14  1  0  0  0  0
 10 40  1  0  0  0  0
 11 12  1  0  0  0  0
 11 41  1  0  0  0  0
 11 42  1  0  0  0  0
 12 43  1  0  0  0  0
 12 44  1  0  0  0  0
 13 12  1  0  0  0  0
 13  2  1  0  0  0  0
 13  5  1  0  0  0  0
 13 45  1  6  0  0  0
 14 15  2  0  0  0  0
 15 16  1  0  0  0  0
 15 46  1  0  0  0  0
 16 17  2  0  0  0  0
 16 47  1  0  0  0  0
 17 18  1  0  0  0  0
 17 48  1  0  0  0  0
 18 20  1  0  0  0  0
 18 19  2  0  0  0  0
 19 14  1  0  0  0  0
 19 49  1  0  0  0  0
 20 21  1  0  0  0  0
 21 22  2  0  0  0  0
 22 23  1  0  0  0  0
 22 50  1  0  0  0  0
 23 24  2  0  0  0  0
 23 51  1  0  0  0  0
 24 25  1  0  0  0  0
 25 27  1  0  0  0  0
 25 26  2  0  0  0  0
 26 21  1  0  0  0  0
 26 52  1  0  0  0  0
 27 28  3  0  0  0  0
M  CHG  1   2   1
M  END
>  <minimizedAffinity>
-7.74751

$$$$

 OpenBabel09092411003D

 53 56  0  0  0  0  0  0  0  0999 V2000
   -0.2689  -49.3693   19.0899 C   0  0  0  0  0  0  0  0  0  0  0  0
    0.6071  -50.3764   18.4054 C   0  0  0  0  0  0  0  0  0  0  0  0
    0.6721  -50.4189   16.9074 C   0  0  0  0  0  0  0  0  0  0  0  0
    1.5481  -51.4260   16.2231 C   0  0  0  0  0  0  0  0  0  0  0  0
    2.3590  -52.3906   17.0366 C   0  0  0  0  0  0  0  0  0  0  0  0
    2.2940  -52.3481   18.5346 C   0  0  0  0  0  0  0  0  0  0  0  0
    1.4180  -51.3410   19.2190 C   0  0  0  0  0  0  0  0  0  0  0  0
    1.3529  -51.2985   20.7170 N   0  0  0  0  0  0  0  0  0  0  0  0
    1.0034  -52.5367   21.4881 C   0  0  0  0  0  0  0  0  0  0  0  0
    0.7189  -53.8176   20.7611 O   0  0  0  0  0  0  0  0  0  0  0  0
    0.9383  -52.4941   22.9860 N   0  0  0  0  0  0  0  0  0  0  0  0
    1.1962  -51.2924   23.8459 C   0  0  0  0  0  0  0  0  0  0  0  0
    1.0212  -51.7013   25.2784 C   0  0  2  0  0  0  0  0  0  0  0  0
    1.0725  -51.2114   26.6952 C   0  0  0  0  0  0  0  0  0  0  0  0
    0.7381  -52.3630   27.5964 C   0  0  0  0  0  0  0  0  0  0  0  0
    0.4802  -53.5647   26.7364 N   0  3  1  0  0  0  0  0  0  0  0  0
    0.1119  -54.9348   27.2235 C   0  0  0  0  0  0  0  0  0  0  0  0
    0.6552  -53.1558   25.3039 C   0  0  1  0  0  0  0  0  0  0  0  0
    0.6039  -53.6457   23.8871 C   0  0  0  0  0  0  0  0  0  0  0  0
    1.6131  -51.4684   14.7251 O   0  0  0  0  0  0  0  0  0  0  0  0
    0.6078  -50.7110   13.9089 C   0  0  0  0  0  0  0  0  0  0  0  0
    0.8792  -49.2892   13.5156 C   0  0  0  0  0  0  0  0  0  0  0  0
   -0.1259  -48.5318   12.6995 C   0  0  0  0  0  0  0  0  0  0  0  0
   -1.4025  -49.1963   12.2768 C   0  0  0  0  0  0  0  0  0  0  0  0
   -1.6739  -50.6182   12.6701 C   0  0  0  0  0  0  0  0  0  0  0  0
   -0.6688  -51.3756   13.4862 C   0  0  0  0  0  0  0  0  0  0  0  0
   -2.9505  -51.2827   12.2474 C   0  0  0  0  0  0  0  0  0  0  0  0
   -4.2272  -51.9473   11.8247 N   0  0  0  0  0  0  0  0  0  0  0  0
   -0.7668  -48.7717   18.3551 H   0  0  0  0  0  0  0  0  0  0  0  0
    0.3310  -48.7405   19.7141 H   0  0  0  0  0  0  0  0  0  0  0  0
   -0.9957  -49.8773   19.6887 H   0  0  0  0  0  0  0  0  0  0  0  0
    0.1142  -49.7553   16.3476 H   0  0  0  0  0  0  0  0  0  0  0  0
    2.9616  -53.0835   16.5657 H   0  0  0  0  0  0  0  0  0  0  0  0
    2.8520  -53.0117   19.0943 H   0  0  0  0  0  0  0  0  0  0  0  0
    1.5396  -50.4578   21.1941 H   0  0  0  0  0  0  0  0  0  0  0  0
    0.5015  -50.5159   23.6025 H   0  0  0  0  0  0  0  0  0  0  0  0
    2.1876  -50.9245   23.6828 H   0  0  0  0  0  0  0  0  0  0  0  0
    1.2820  -50.6637   25.2601 H   0  0  0  0  0  0  0  0  0  0  0  0
    0.3612  -50.4240   26.8331 H   0  0  0  0  0  0  0  0  0  0  0  0
    2.0470  -50.8325   26.9224 H   0  0  0  0  0  0  0  0  0  0  0  0
   -0.1351  -52.1332   28.1705 H   0  0  0  0  0  0  0  0  0  0  0  0
    1.5468  -52.5547   28.2703 H   0  0  0  0  0  0  0  0  0  0  0  0
    0.2299  -54.4964   27.0676 H   0  0  0  0  0  0  0  0  0  0  0  0
   -0.9160  -54.9433   27.5207 H   0  0  0  0  0  0  0  0  0  0  0  0
    0.7272  -55.1933   28.0599 H   0  0  0  0  0  0  0  0  0  0  0  0
    0.2618  -55.6451   26.4374 H   0  0  0  0  0  0  0  0  0  0  0  0
    0.3944  -54.1934   25.3222 H   0  0  0  0  0  0  0  0  0  0  0  0
   -0.3776  -54.0085   23.6637 H   0  0  0  0  0  0  0  0  0  0  0  0
    1.3018  -54.4441   23.7444 H   0  0  0  0  0  0  0  0  0  0  0  0
    1.7575  -48.8320   13.8065 H   0  0  0  0  0  0  0  0  0  0  0  0
    0.0609  -47.5536   12.4289 H   0  0  0  0  0  0  0  0  0  0  0  0
   -2.0941  -48.6752   11.7154 H   0  0  0  0  0  0  0  0  0  0  0  0
   -0.8555  -52.3538   13.7568 H   0  0  0  0  0  0  0  0  0  0  0  0
  1  2  1  0  0  0  0
  1 29  1  0  0  0  0
  1 30  1  0  0  0  0
  1 31  1  0  0  0  0
  2  3  2  0  0  0  0
  3  4  1  0  0  0  0
  3 32  1  0  0  0  0
  4 20  1  0  0  0  0
  4  5  2  0  0  0  0
  5  6  1  0  0  0  0
  5 33  1  0  0  0  0
  6  7  2  0  0  0  0
  6 34  1  0  0  0  0
  7  8  1  0  0  0  0
  7  2  1  0  0  0  0
  8  9  1  0  0  0  0
  8 35  1  0  0  0  0
  9 10  2  0  0  0  0
  9 11  1  0  0  0  0
 11 12  1  0  0  0  0
 12 36  1  0  0  0  0
 12 37  1  0  0  0  0
 13 12  1  0  0  0  0
 13 14  1  0  0  0  0
 13 38  1  6  0  0  0
 14 15  1  0  0  0  0
 14 39  1  0  0  0  0
 14 40  1  0  0  0  0
 15 16  1  0  0  0  0
 15 41  1  0  0  0  0
 15 42  1  0  0  0  0
 16 17  1  0  0  0  0
 16 18  1  0  0  0  0
 16 43  1  1  0  0  0
 17 44  1  0  0  0  0
 17 45  1  0  0  0  0
 17 46  1  0  0  0  0
 18 19  1  0  0  0  0
 18 13  1  0  0  0  0
 18 47  1  1  0  0  0
 19 11  1  0  0  0  0
 19 48  1  0  0  0  0
 19 49  1  0  0  0  0
 20 21  1  0  0  0  0
 21 22  2  0  0  0  0
 22 23  1  0  0  0  0
 22 50  1  0  0  0  0
 23 24  2  0  0  0  0
 23 51  1  0  0  0  0
 24 25  1  0  0  0  0
 24 52  1  0  0  0  0
 25 27  1  0  0  0  0
 25 26  2  0  0  0  0
 26 21  1  0  0  0  0
 26 53  1  0  0  0  0
 27 28  3  0  0  0  0
M  CHG  1  16   1
M  END
>  <minimizedAffinity>
-7.83643

$$$$

 OpenBabel09092411003D

 51 54  0  0  0  0  0  0  0  0999 V2000
   -0.2472  -48.6953   17.6927 C   0  0  0  0  0  0  0  0  0  0  0  0
    0.5082  -49.9910   17.7166 N   0  3  1  0  0  0  0  0  0  0  0  0
    1.1230  -50.6751   16.5316 C   0  0  0  0  0  0  0  0  0  0  0  0
    1.7762  -51.9369   17.0123 C   0  0  0  0  0  0  0  0  0  0  0  0
    1.5652  -52.0327   18.4943 C   0  0  2  0  0  0  0  0  0  0  0  0
    1.9853  -53.0596   19.5036 C   0  0  0  0  0  0  0  0  0  0  0  0
    1.6219  -52.8839   20.9483 C   0  0  0  0  0  0  0  0  0  0  0  0
    0.8382  -51.6812   21.3835 N   0  0  0  0  0  0  0  0  0  0  0  0
    0.4748  -51.5055   22.8282 C   0  0  0  0  0  0  0  0  0  0  0  0
   -0.3089  -50.3028   23.2635 O   0  0  0  0  0  0  0  0  0  0  0  0
    0.8949  -52.5324   23.8376 N   0  0  0  0  0  0  0  0  0  0  0  0
    0.4181  -50.6543   20.3742 C   0  0  0  0  0  0  0  0  0  0  0  0
    0.7815  -50.8300   18.9296 C   0  0  1  0  0  0  0  0  0  0  0  0
    0.5315  -52.3567   25.2823 C   0  0  0  0  0  0  0  0  0  0  0  0
   -0.9059  -52.1959   25.6798 C   0  0  0  0  0  0  0  0  0  0  0  0
   -1.2693  -52.0202   27.1245 C   0  0  0  0  0  0  0  0  0  0  0  0
   -0.1953  -52.0053   28.1716 N   0  0  0  0  0  0  0  0  0  0  0  0
    1.2421  -52.1660   27.7740 C   0  0  0  0  0  0  0  0  0  0  0  0
    1.6055  -52.3417   26.3294 N   0  0  0  0  0  0  0  0  0  0  0  0
   -2.7067  -51.8595   27.5221 O   0  0  0  0  0  0  0  0  0  0  0  0
   -3.3583  -50.5103   27.4505 C   0  0  0  0  0  0  0  0  0  0  0  0
   -3.7198  -49.7841   28.7123 C   0  0  0  0  0  0  0  0  0  0  0  0
   -4.3714  -48.4349   28.6407 C   0  0  0  0  0  0  0  0  0  0  0  0
   -4.6614  -47.8119   27.3073 C   0  0  0  0  0  0  0  0  0  0  0  0
   -4.2998  -48.5381   26.0456 C   0  0  0  0  0  0  0  0  0  0  0  0
   -3.6483  -49.8873   26.1172 C   0  0  0  0  0  0  0  0  0  0  0  0
   -4.5898  -47.9151   24.7123 C   0  0  0  0  0  0  0  0  0  0  0  0
   -4.8799  -47.2920   23.3790 N   0  0  0  0  0  0  0  0  0  0  0  0
   -0.2849  -48.3229   16.6903 H   0  0  0  0  0  0  0  0  0  0  0  0
    0.2469  -47.9827   18.3196 H   0  0  0  0  0  0  0  0  0  0  0  0
   -1.2425  -48.8560   18.0511 H   0  0  0  0  0  0  0  0  0  0  0  0
   -0.0058  -49.1101   17.7005 H   0  0  0  0  0  0  0  0  0  0  0  0
    1.8542  -50.0360   16.0824 H   0  0  0  0  0  0  0  0  0  0  0  0
    0.3735  -50.8993   15.8016 H   0  0  0  0  0  0  0  0  0  0  0  0
    2.8237  -51.9088   16.7957 H   0  0  0  0  0  0  0  0  0  0  0  0
    1.3504  -52.7865   16.5206 H   0  0  0  0  0  0  0  0  0  0  0  0
    2.0856  -52.9589   18.6217 H   0  0  0  0  0  0  0  0  0  0  0  0
    3.0527  -53.1183   19.4585 H   0  0  0  0  0  0  0  0  0  0  0  0
    1.4322  -53.9288   19.2149 H   0  0  0  0  0  0  0  0  0  0  0  0
    2.5397  -52.8701   21.4982 H   0  0  0  0  0  0  0  0  0  0  0  0
    0.9498  -53.6956   21.1334 H   0  0  0  0  0  0  0  0  0  0  0  0
    1.4092  -53.3218   23.5519 H   0  0  0  0  0  0  0  0  0  0  0  0
    0.8401  -49.7224   20.6877 H   0  0  0  0  0  0  0  0  0  0  0  0
   -0.6489  -50.7348   20.3709 H   0  0  0  0  0  0  0  0  0  0  0  0
    0.2802  -50.1889   19.6242 H   0  0  0  0  0  0  0  0  0  0  0  0
   -1.6448  -52.2061   24.9594 H   0  0  0  0  0  0  0  0  0  0  0  0
    1.9810  -52.1557   28.4944 H   0  0  0  0  0  0  0  0  0  0  0  0
   -3.5202  -50.2127   29.6296 H   0  0  0  0  0  0  0  0  0  0  0  0
   -4.6202  -47.9353   29.5088 H   0  0  0  0  0  0  0  0  0  0  0  0
   -5.1097  -46.8837   27.2580 H   0  0  0  0  0  0  0  0  0  0  0  0
   -3.3996  -50.3869   25.2491 H   0  0  0  0  0  0  0  0  0  0  0  0
  1  2  1  0  0  0  0
  1 29  1  0  0  0  0
  1 30  1  0  0  0  0
  1 31  1  0  0  0  0
  2  3  1  0  0  0  0
  2 32  1  6  0  0  0
  3  4  1  0  0  0  0
  3 33  1  0  0  0  0
  3 34  1  0  0  0  0
  4 35  1  0  0  0  0
  4 36  1  0  0  0  0
  5  4  1  0  0  0  0
  5  6  1  0  0  0  0
  5 37  1  1  0  0  0
  6  7  1  0  0  0  0
  6 38  1  0  0  0  0
  6 39  1  0  0  0  0
  7  8  1  0  0  0  0
  7 40  1  0  0  0  0
  7 41  1  0  0  0  0
  8  9  1  0  0  0  0
  8 12  1  0  0  0  0
  9 10  2  0  0  0  0
  9 11  1  0  0  0  0
 11 14  1  0  0  0  0
 11 42  1  0  0  0  0
 12 43  1  0  0  0  0
 12 44  1  0  0  0  0
 13 12  1  0  0  0  0
 13  2  1  0  0  0  0
 13  5  1  0  0  0  0
 13 45  1  6  0  0  0
 14 15  2  0  0  0  0
 15 16  1  0  0  0  0
 15 46  1  0  0  0  0
 16 20  1  0  0  0  0
 16 17  2  0  0  0  0
 17 18  1  0  0  0  0
 18 19  2  0  0  0  0
 18 47  1  0  0  0  0
 19 14  1  0  0  0  0
 20 21  1  0  0  0  0
 21 22  2  0  0  0  0
 22 23  1  0  0  0  0
 22 48  1  0  0  0  0
 23 24  2  0  0  0  0
 23 49  1  0  0  0  0
 24 25  1  0  0  0  0
 24 50  1  0  0  0  0
 25 27  1  0  0  0  0
 25 26  2  0  0  0  0
 26 21  1  0  0  0  0
 26 51  1  0  0  0  0
 27 28  3  0  0  0  0
M  CHG  1   2   1
M  END
>  <minimizedAffinity>
-8.20880

$$$$

 OpenBabel09092411003D

 54 57  0  0  0  0  0  0  0  0999 V2000
   -0.9831  -52.3108   26.7962 C   0  0  0  0  0  0  0  0  0  0  0  0
   -0.4366  -52.1804   25.4054 C   0  0  0  0  0  0  0  0  0  0  0  0
    0.2476  -53.3466   24.7560 C   0  0  0  0  0  0  0  0  0  0  0  0
    0.3854  -54.6433   25.4973 C   0  0  0  0  0  0  0  0  0  0  0  0
   -0.1611  -54.7737   26.8881 N   0  0  0  0  0  0  0  0  0  0  0  0
   -0.8453  -53.6075   27.5375 N   0  0  0  0  0  0  0  0  0  0  0  0
    0.7941  -53.2161   23.3652 N   0  0  0  0  0  0  0  0  0  0  0  0
    0.0393  -52.4316   22.3333 C   0  0  0  0  0  0  0  0  0  0  0  0
   -1.2620  -51.7775   22.6922 O   0  0  0  0  0  0  0  0  0  0  0  0
    0.5858  -52.3011   20.9425 N   0  0  0  0  0  0  0  0  0  0  0  0
    1.8674  -52.8963   20.4393 C   0  0  0  0  0  0  0  0  0  0  0  0
    2.0203  -52.5155   18.9966 C   0  0  1  0  0  0  0  0  0  0  0  0
    2.9069  -52.6481   17.7939 C   0  0  0  0  0  0  0  0  0  0  0  0
    2.2678  -51.8994   16.6620 C   0  0  0  0  0  0  0  0  0  0  0  0
    0.9861  -51.3042   17.1652 N   0  3  1  0  0  0  0  0  0  0  0  0
    0.0259  -50.4740   16.3659 C   0  0  0  0  0  0  0  0  0  0  0  0
    0.8332  -51.6850   18.6080 C   0  0  2  0  0  0  0  0  0  0  0  0
   -0.0534  -51.5524   19.8107 C   0  0  0  0  0  0  0  0  0  0  0  0
   -1.6673  -51.1446   27.4457 O   0  0  0  0  0  0  0  0  0  0  0  0
   -4.5347  -50.1041   24.9069 C   0  0  0  0  0  0  0  0  0  0  0  0
   -4.5357  -48.6137   25.0758 C   0  0  0  0  0  0  0  0  0  0  0  0
   -3.5806  -47.9669   26.0346 C   0  0  0  0  0  0  0  0  0  0  0  0
   -2.6244  -48.8105   26.8246 C   0  0  0  0  0  0  0  0  0  0  0  0
   -2.6235  -50.3010   26.6557 C   0  0  0  0  0  0  0  0  0  0  0  0
   -3.5786  -50.9478   25.6969 C   0  0  0  0  0  0  0  0  0  0  0  0
   -5.4898  -50.7510   23.9481 O   0  0  0  0  0  0  0  0  0  0  0  0
   -4.3972  -50.5911   21.5964 C   0  0  0  0  0  0  0  0  0  0  0  0
   -4.9716  -51.4178   22.7084 C   0  0  0  0  0  0  0  0  0  0  0  0
   -0.5314  -51.2883   24.8953 H   0  0  0  0  0  0  0  0  0  0  0  0
    0.8562  -55.4457   25.0505 H   0  0  0  0  0  0  0  0  0  0  0  0
    1.6482  -53.6454   23.1296 H   0  0  0  0  0  0  0  0  0  0  0  0
    1.8340  -53.9617   20.5320 H   0  0  0  0  0  0  0  0  0  0  0  0
    2.6959  -52.5315   21.0098 H   0  0  0  0  0  0  0  0  0  0  0  0
    2.8672  -53.1077   19.2739 H   0  0  0  0  0  0  0  0  0  0  0  0
    3.0125  -53.6803   17.5327 H   0  0  0  0  0  0  0  0  0  0  0  0
    3.8778  -52.2493   18.0021 H   0  0  0  0  0  0  0  0  0  0  0  0
    2.0641  -52.5691   15.8528 H   0  0  0  0  0  0  0  0  0  0  0  0
    2.9219  -51.1296   16.3092 H   0  0  0  0  0  0  0  0  0  0  0  0
    0.3333  -50.7396   16.6217 H   0  0  0  0  0  0  0  0  0  0  0  0
   -0.7766  -51.0912   16.0196 H   0  0  0  0  0  0  0  0  0  0  0  0
    0.5355  -50.0477   15.5272 H   0  0  0  0  0  0  0  0  0  0  0  0
   -0.3661  -49.6910   16.9808 H   0  0  0  0  0  0  0  0  0  0  0  0
   -0.0137  -51.0927   18.3307 H   0  0  0  0  0  0  0  0  0  0  0  0
   -1.0168  -51.9672   19.5991 H   0  0  0  0  0  0  0  0  0  0  0  0
   -0.1769  -50.5216   20.0697 H   0  0  0  0  0  0  0  0  0  0  0  0
   -5.1935  -48.0333   24.5323 H   0  0  0  0  0  0  0  0  0  0  0  0
   -3.5813  -46.9415   26.1508 H   0  0  0  0  0  0  0  0  0  0  0  0
   -1.9672  -48.3655   27.4842 H   0  0  0  0  0  0  0  0  0  0  0  0
   -3.5779  -51.9732   25.5807 H   0  0  0  0  0  0  0  0  0  0  0  0
   -4.0812  -51.2333   20.8010 H   0  0  0  0  0  0  0  0  0  0  0  0
   -3.5583  -50.0360   21.9613 H   0  0  0  0  0  0  0  0  0  0  0  0
   -5.1423  -49.9142   21.2337 H   0  0  0  0  0  0  0  0  0  0  0  0
   -4.2028  -52.0938   23.0196 H   0  0  0  0  0  0  0  0  0  0  0  0
   -5.8514  -51.8413   22.2708 H   0  0  0  0  0  0  0  0  0  0  0  0
  1  2  2  0  0  0  0
  2  3  1  0  0  0  0
  2 29  1  0  0  0  0
  3  7  1  0  0  0  0
  3  4  2  0  0  0  0
  4  5  1  0  0  0  0
  4 30  1  0  0  0  0
  5  6  2  0  0  0  0
  6  1  1  0  0  0  0
  7  8  1  0  0  0  0
  7 31  1  0  0  0  0
  8  9  2  0  0  0  0
  8 10  1  0  0  0  0
 10 11  1  0  0  0  0
 11 32  1  0  0  0  0
 11 33  1  0  0  0  0
 12 11  1  0  0  0  0
 12 13  1  0  0  0  0
 12 34  1  1  0  0  0
 13 14  1  0  0  0  0
 13 35  1  0  0  0  0
 13 36  1  0  0  0  0
 14 15  1  0  0  0  0
 14 37  1  0  0  0  0
 14 38  1  0  0  0  0
 15 16  1  0  0  0  0
 15 17  1  0  0  0  0
 15 39  1  1  0  0  0
 16 40  1  0  0  0  0
 16 41  1  0  0  0  0
 16 42  1  0  0  0  0
 17 18  1  0  0  0  0
 17 12  1  0  0  0  0
 17 43  1  6  0  0  0
 18 10  1  0  0  0  0
 18 44  1  0  0  0  0
 18 45  1  0  0  0  0
 19  1  1  0  0  0  0
 20 21  2  0  0  0  0
 21 22  1  0  0  0  0
 21 46  1  0  0  0  0
 22 23  2  0  0  0  0
 22 47  1  0  0  0  0
 23 24  1  0  0  0  0
 23 48  1  0  0  0  0
 24 19  1  0  0  0  0
 24 25  2  0  0  0  0
 25 20  1  0  0  0  0
 25 49  1  0  0  0  0
 26 20  1  0  0  0  0
 27 28  1  0  0  0  0
 27 50  1  0  0  0  0
 27 51  1  0  0  0  0
 27 52  1  0  0  0  0
 28 26  1  0  0  0  0
 28 53  1  0  0  0  0
 28 54  1  0  0  0  0
M  CHG  1  15   1
M  END
>  <minimizedAffinity>
-7.74822

$$$$

 OpenBabel09092411003D

 41 43  0  0  0  0  0  0  0  0999 V2000
    0.0744  -52.6002   27.2318 C   0  0  0  0  0  0  0  0  0  0  0  0
    0.8499  -52.1525   28.4352 N   0  0  0  0  0  0  0  0  0  0  0  0
    2.2522  -51.6442   28.2771 C   0  0  0  0  0  0  0  0  0  0  0  0
    2.8791  -51.5837   26.9157 C   0  0  0  0  0  0  0  0  0  0  0  0
    2.1036  -52.0314   25.7124 N   0  0  0  0  0  0  0  0  0  0  0  0
    0.7012  -52.5397   25.8704 C   0  0  0  0  0  0  0  0  0  0  0  0
   -0.0744  -52.9875   24.6671 N   0  0  0  0  0  0  0  0  0  0  0  0
    0.5289  -52.8681   23.2989 C   0  0  0  0  0  0  0  0  0  0  0  0
    1.1791  -54.0591   22.6594 C   0  0  0  0  0  0  0  0  0  0  0  0
    1.7824  -53.9397   21.2913 C   0  0  0  0  0  0  0  0  0  0  0  0
    1.7355  -52.6293   20.5627 C   0  0  0  0  0  0  0  0  0  0  0  0
    2.3388  -52.5099   19.1945 Cl  0  0  0  0  0  0  0  0  0  0  0  0
    1.0853  -51.4385   21.2022 C   0  0  0  0  0  0  0  0  0  0  0  0
    1.0384  -50.1281   20.4735 F   0  0  0  0  0  0  0  0  0  0  0  0
    0.4820  -51.5578   22.5703 C   0  0  0  0  0  0  0  0  0  0  0  0
   -1.3280  -53.1085   27.3899 O   0  0  0  0  0  0  0  0  0  0  0  0
   -2.4716  -52.1413   27.4719 C   0  0  0  0  0  0  0  0  0  0  0  0
   -3.0670  -52.4111   24.9574 O   0  0  0  0  0  0  0  0  0  0  0  0
   -3.0836  -51.5952   26.2161 C   0  0  0  0  0  0  0  0  0  0  0  0
   -3.7123  -50.2333   26.2188 N   0  0  0  0  0  0  0  0  0  0  0  0
   -4.3243  -49.6873   24.9629 C   0  0  0  0  0  0  0  0  0  0  0  0
   -4.9530  -48.3253   24.9656 C   0  0  0  0  0  0  0  0  0  0  0  0
   -4.9696  -47.5095   26.2243 O   0  0  0  0  0  0  0  0  0  0  0  0
   -4.3575  -48.0555   27.4801 C   0  0  0  0  0  0  0  0  0  0  0  0
   -3.7289  -49.4175   27.4774 C   0  0  0  0  0  0  0  0  0  0  0  0
    2.7858  -51.3361   29.1050 H   0  0  0  0  0  0  0  0  0  0  0  0
    3.8440  -51.2340   26.8070 H   0  0  0  0  0  0  0  0  0  0  0  0
   -0.9794  -53.3598   24.7753 H   0  0  0  0  0  0  0  0  0  0  0  0
    1.2113  -54.9606   23.1607 H   0  0  0  0  0  0  0  0  0  0  0  0
    2.2297  -54.7590   20.8513 H   0  0  0  0  0  0  0  0  0  0  0  0
    0.0347  -50.7384   23.0103 H   0  0  0  0  0  0  0  0  0  0  0  0
   -3.2552  -52.6343   28.0083 H   0  0  0  0  0  0  0  0  0  0  0  0
   -2.0317  -51.2783   27.9265 H   0  0  0  0  0  0  0  0  0  0  0  0
   -5.0850  -50.3780   24.6644 H   0  0  0  0  0  0  0  0  0  0  0  0
   -3.4840  -49.5690   24.3111 H   0  0  0  0  0  0  0  0  0  0  0  0
   -5.9726  -48.4551   24.6682 H   0  0  0  0  0  0  0  0  0  0  0  0
   -4.3189  -47.7604   24.3147 H   0  0  0  0  0  0  0  0  0  0  0  0
   -5.1318  -48.0741   28.2183 H   0  0  0  0  0  0  0  0  0  0  0  0
   -3.5281  -47.4022   27.6536 H   0  0  0  0  0  0  0  0  0  0  0  0
   -4.2444  -49.9971   28.2144 H   0  0  0  0  0  0  0  0  0  0  0  0
   -2.6934  -49.2108   27.6502 H   0  0  0  0  0  0  0  0  0  0  0  0
  1  2  2  0  0  0  0
  2  3  1  0  0  0  0
  3  4  2  0  0  0  0
  3 26  1  0  0  0  0
  4  5  1  0  0  0  0
  4 27  1  0  0  0  0
  5  6  2  0  0  0  0
  6  7  1  0  0  0  0
  6  1  1  0  0  0  0
  7  8  1  0  0  0  0
  7 28  1  0  0  0  0
  8  9  2  0  0  0  0
  9 10  1  0  0  0  0
  9 29  1  0  0  0  0
 10 11  2  0  0  0  0
 10 30  1  0  0  0  0
 11 12  1  0  0  0  0
 11 13  1  0  0  0  0
 13 14  1  0  0  0  0
 13 15  2  0  0  0  0
 15  8  1  0  0  0  0
 15 31  1  0  0  0  0
 16  1  1  0  0  0  0
 17 16  1  0  0  0  0
 17 32  1  0  0  0  0
 17 33  1  0  0  0  0
 18 19  2  0  0  0  0
 19 17  1  0  0  0  0
 19 20  1  0  0  0  0
 20 21  1  0  0  0  0
 21 22  1  0  0  0  0
 21 34  1  0  0  0  0
 21 35  1  0  0  0  0
 22 23  1  0  0  0  0
 22 36  1  0  0  0  0
 22 37  1  0  0  0  0
 23 24  1  0  0  0  0
 24 25  1  0  0  0  0
 24 38  1  0  0  0  0
 24 39  1  0  0  0  0
 25 20  1  0  0  0  0
 25 40  1  0  0  0  0
 25 41  1  0  0  0  0
M  END
>  <minimizedAffinity>
-7.56054

$$$$

 OpenBabel09092411003D

 44 46  0  0  0  0  0  0  0  0999 V2000
   -2.5217  -50.1457   23.3223 C   0  0  0  0  0  0  0  0  0  0  0  0
   -3.8573  -49.9874   22.6578 C   0  0  0  0  0  0  0  0  0  0  0  0
   -5.0679  -50.6558   23.2387 C   0  0  0  0  0  0  0  0  0  0  0  0
   -4.9431  -51.4826   24.4840 C   0  0  0  0  0  0  0  0  0  0  0  0
   -3.6077  -51.6410   25.1485 C   0  0  0  0  0  0  0  0  0  0  0  0
   -2.3970  -50.9725   24.5676 N   0  0  0  0  0  0  0  0  0  0  0  0
   -1.3111  -49.4772   22.7414 N   0  0  0  0  0  0  0  0  0  0  0  0
    1.6976  -52.0914   18.2566 F   0  0  0  0  0  0  0  0  0  0  0  0
    0.9454  -51.4379   19.3778 C   0  0  0  0  0  0  0  0  0  0  0  0
    0.5895  -49.9831   19.2944 C   0  0  0  0  0  0  0  0  0  0  0  0
   -0.1627  -49.3296   20.4156 C   0  0  0  0  0  0  0  0  0  0  0  0
   -0.5589  -50.1308   21.6202 C   0  0  0  0  0  0  0  0  0  0  0  0
   -0.2030  -51.5855   21.7035 C   0  0  0  0  0  0  0  0  0  0  0  0
    0.5491  -52.2391   20.5823 C   0  0  0  0  0  0  0  0  0  0  0  0
    0.9050  -53.6939   20.6657 Cl  0  0  0  0  0  0  0  0  0  0  0  0
   -3.4829  -52.4678   26.3938 O   0  0  0  0  0  0  0  0  0  0  0  0
   -2.6546  -51.9734   27.5424 C   0  0  0  0  0  0  0  0  0  0  0  0
   -1.2736  -52.5171   27.7599 C   0  0  0  0  0  0  0  0  0  0  0  0
   -0.2815  -52.5164   26.6348 N   0  3  0  0  0  0  0  0  0  0  0  0
   -0.2339  -53.6691   25.6762 C   0  0  0  0  0  0  0  0  0  0  0  0
    0.7582  -53.6685   24.5512 C   0  0  0  0  0  0  0  0  0  0  0  0
    1.7027  -52.5151   24.3847 O   0  0  0  0  0  0  0  0  0  0  0  0
    1.6551  -51.3624   25.3434 C   0  0  0  0  0  0  0  0  0  0  0  0
    0.6630  -51.3631   26.4684 C   0  0  0  0  0  0  0  0  0  0  0  0
   -3.9432  -49.4186   21.8010 H   0  0  0  0  0  0  0  0  0  0  0  0
   -5.9867  -50.5468   22.7816 H   0  0  0  0  0  0  0  0  0  0  0  0
   -5.7761  -51.9425   24.8836 H   0  0  0  0  0  0  0  0  0  0  0  0
   -1.0102  -48.6095   23.0960 H   0  0  0  0  0  0  0  0  0  0  0  0
    0.8622  -49.4318   18.4657 H   0  0  0  0  0  0  0  0  0  0  0  0
   -0.4076  -48.3287   20.3582 H   0  0  0  0  0  0  0  0  0  0  0  0
   -0.4756  -52.1367   22.5323 H   0  0  0  0  0  0  0  0  0  0  0  0
   -3.2104  -52.1763   28.4339 H   0  0  0  0  0  0  0  0  0  0  0  0
   -2.4788  -50.9473   27.2952 H   0  0  0  0  0  0  0  0  0  0  0  0
   -1.3876  -53.5346   28.0705 H   0  0  0  0  0  0  0  0  0  0  0  0
   -0.8479  -51.8327   28.4637 H   0  0  0  0  0  0  0  0  0  0  0  0
   -0.7485  -51.7001   26.2399 H   0  0  0  0  0  0  0  0  0  0  0  0
   -1.2046  -53.7417   25.2320 H   0  0  0  0  0  0  0  0  0  0  0  0
    0.0891  -54.4850   26.2885 H   0  0  0  0  0  0  0  0  0  0  0  0
    0.1961  -53.7409   23.6436 H   0  0  0  0  0  0  0  0  0  0  0  0
    1.4066  -54.4841   24.7946 H   0  0  0  0  0  0  0  0  0  0  0  0
    1.4624  -50.4850   24.7621 H   0  0  0  0  0  0  0  0  0  0  0  0
    2.5975  -51.4219   25.8465 H   0  0  0  0  0  0  0  0  0  0  0  0
    0.0617  -50.4859   26.3505 H   0  0  0  0  0  0  0  0  0  0  0  0
    1.2801  -51.4229   27.3405 H   0  0  0  0  0  0  0  0  0  0  0  0
  1  2  2  0  0  0  0
  2  3  1  0  0  0  0
  2 25  1  0  0  0  0
  3  4  2  0  0  0  0
  3 26  1  0  0  0  0
  4  5  1  0  0  0  0
  4 27  1  0  0  0  0
  5 16  1  0  0  0  0
  5  6  2  0  0  0  0
  6  1  1  0  0  0  0
  7  1  1  0  0  0  0
  7 28  1  0  0  0  0
  8  9  1  0  0  0  0
  9 10  2  0  0  0  0
 10 11  1  0  0  0  0
 10 29  1  0  0  0  0
 11 12  2  0  0  0  0
 11 30  1  0  0  0  0
 12  7  1  0  0  0  0
 12 13  1  0  0  0  0
 13 14  2  0  0  0  0
 13 31  1  0  0  0  0
 14 15  1  0  0  0  0
 14  9  1  0  0  0  0
 16 17  1  0  0  0  0
 17 18  1  0  0  0  0
 17 32  1  0  0  0  0
 17 33  1  0  0  0  0
 18 19  1  0  0  0  0
 18 34  1  0  0  0  0
 18 35  1  0  0  0  0
 19 20  1  0  0  0  0
 19 36  1  0  0  0  0
 20 21  1  0  0  0  0
 20 37  1  0  0  0  0
 20 38  1  0  0  0  0
 21 22  1  0  0  0  0
 21 39  1  0  0  0  0
 21 40  1  0  0  0  0
 22 23  1  0  0  0  0
 23 24  1  0  0  0  0
 23 41  1  0  0  0  0
 23 42  1  0  0  0  0
 24 19  1  0  0  0  0
 24 43  1  0  0  0  0
 24 44  1  0  0  0  0
M  CHG  1  19   1
M  END
>  <minimizedAffinity>
-7.14934

$$$$

 OpenBabel09092411003D

 43 45  0  0  0  0  0  0  0  0999 V2000
    0.3608  -51.8804   25.4279 C   0  0  0  0  0  0  0  0  0  0  0  0
    1.7922  -51.4328   25.4546 C   0  0  0  0  0  0  0  0  0  0  0  0
    2.5329  -51.3659   26.7573 C   0  0  0  0  0  0  0  0  0  0  0  0
    1.8422  -51.7466   28.0332 C   0  0  0  0  0  0  0  0  0  0  0  0
    0.4108  -52.1942   28.0065 N   0  0  0  0  0  0  0  0  0  0  0  0
   -0.3299  -52.2612   26.7038 C   0  0  0  0  0  0  0  0  0  0  0  0
   -0.3799  -51.9474   24.1252 N   0  0  0  0  0  0  0  0  0  0  0  0
    2.5796  -53.1677   19.0506 F   0  0  0  0  0  0  0  0  0  0  0  0
    1.8398  -52.8626   20.3193 C   0  0  0  0  0  0  0  0  0  0  0  0
    1.7221  -53.9077   21.3888 C   0  0  0  0  0  0  0  0  0  0  0  0
    0.9823  -53.6026   22.6574 N   0  0  0  0  0  0  0  0  0  0  0  0
    0.3600  -52.2524   22.8566 C   0  0  0  0  0  0  0  0  0  0  0  0
    0.4776  -51.2073   21.7871 C   0  0  0  0  0  0  0  0  0  0  0  0
   -0.1447  -49.8571   21.9862 Cl  0  0  0  0  0  0  0  0  0  0  0  0
    1.2175  -51.5124   20.5184 C   0  0  0  0  0  0  0  0  0  0  0  0
   -1.7613  -52.7088   26.6771 O   0  0  0  0  0  0  0  0  0  0  0  0
   -2.8654  -51.6953   26.7389 C   0  0  0  0  0  0  0  0  0  0  0  0
   -3.9789  -51.7371   25.7348 C   0  0  0  0  0  0  0  0  0  0  0  0
   -3.8429  -51.0044   24.4330 N   0  3  0  0  0  0  0  0  0  0  0  0
   -3.8108  -49.5049   24.4162 C   0  0  0  0  0  0  0  0  0  0  0  0
   -3.6748  -48.7722   23.1144 C   0  0  0  0  0  0  0  0  0  0  0  0
   -3.5709  -49.5390   21.8294 O   0  0  0  0  0  0  0  0  0  0  0  0
   -3.6029  -51.0386   21.8462 C   0  0  0  0  0  0  0  0  0  0  0  0
   -3.7390  -51.7713   23.1480 C   0  0  0  0  0  0  0  0  0  0  0  0
    2.2674  -51.1709   24.5768 H   0  0  0  0  0  0  0  0  0  0  0  0
    3.5177  -51.0579   26.7757 H   0  0  0  0  0  0  0  0  0  0  0  0
    2.3518  -51.7006   28.9294 H   0  0  0  0  0  0  0  0  0  0  0  0
   -1.3517  -51.7912   24.1029 H   0  0  0  0  0  0  0  0  0  0  0  0
    2.1501  -54.8367   21.2518 H   0  0  0  0  0  0  0  0  0  0  0  0
    1.2984  -50.7934   19.7826 H   0  0  0  0  0  0  0  0  0  0  0  0
   -2.4064  -50.7327   26.6512 H   0  0  0  0  0  0  0  0  0  0  0  0
   -3.3573  -51.9235   27.6613 H   0  0  0  0  0  0  0  0  0  0  0  0
   -4.8478  -51.3449   26.2207 H   0  0  0  0  0  0  0  0  0  0  0  0
   -4.0033  -52.7646   25.4373 H   0  0  0  0  0  0  0  0  0  0  0  0
   -3.8034  -50.8224   23.4302 H   0  0  0  0  0  0  0  0  0  0  0  0
   -2.9839  -49.2068   25.0263 H   0  0  0  0  0  0  0  0  0  0  0  0
   -4.7908  -49.2342   24.7496 H   0  0  0  0  0  0  0  0  0  0  0  0
   -2.7919  -48.1723   23.1884 H   0  0  0  0  0  0  0  0  0  0  0  0
   -4.6103  -48.2612   23.0209 H   0  0  0  0  0  0  0  0  0  0  0  0
   -2.6903  -51.3721   21.3980 H   0  0  0  0  0  0  0  0  0  0  0  0
   -4.5147  -51.2709   21.3367 H   0  0  0  0  0  0  0  0  0  0  0  0
   -2.8825  -52.4067   23.2359 H   0  0  0  0  0  0  0  0  0  0  0  0
   -4.6955  -52.2437   23.0655 H   0  0  0  0  0  0  0  0  0  0  0  0
  1  2  2  0  0  0  0
  2  3  1  0  0  0  0
  2 25  1  0  0  0  0
  3  4  2  0  0  0  0
  3 26  1  0  0  0  0
  4  5  1  0  0  0  0
  4 27  1  0  0  0  0
  5  6  2  0  0  0  0
  6 16  1  0  0  0  0
  6  1  1  0  0  0  0
  7  1  1  0  0  0  0
  7 28  1  0  0  0  0
  8  9  1  0  0  0  0
  9 10  2  0  0  0  0
 10 11  1  0  0  0  0
 10 29  1  0  0  0  0
 11 12  2  0  0  0  0
 12  7  1  0  0  0  0
 12 13  1  0  0  0  0
 13 14  1  0  0  0  0
 13 15  2  0  0  0  0
 15  9  1  0  0  0  0
 15 30  1  0  0  0  0
 16 17  1  0  0  0  0
 17 18  1  0  0  0  0
 17 31  1  0  0  0  0
 17 32  1  0  0  0  0
 18 19  1  0  0  0  0
 18 33  1  0  0  0  0
 18 34  1  0  0  0  0
 19 20  1  0  0  0  0
 19 35  1  0  0  0  0
 20 21  1  0  0  0  0
 20 36  1  0  0  0  0
 20 37  1  0  0  0  0
 21 22  1  0  0  0  0
 21 38  1  0  0  0  0
 21 39  1  0  0  0  0
 22 23  1  0  0  0  0
 23 24  1  0  0  0  0
 23 40  1  0  0  0  0
 23 41  1  0  0  0  0
 24 19  1  0  0  0  0
 24 42  1  0  0  0  0
 24 43  1  0  0  0  0
M  CHG  1  19   1
M  END
>  <minimizedAffinity>
-7.27878

$$$$

 OpenBabel09092411003D

 45 47  0  0  0  0  0  0  0  0999 V2000
   -0.0723  -52.0953   21.7690 C   0  0  0  0  0  0  0  0  0  0  0  0
   -0.0061  -50.8874   20.8821 C   0  0  0  0  0  0  0  0  0  0  0  0
    0.7857  -50.9342   19.6090 C   0  0  0  0  0  0  0  0  0  0  0  0
    1.5114  -52.1889   19.2228 C   0  0  0  0  0  0  0  0  0  0  0  0
    1.4451  -53.3968   20.1097 C   0  0  0  0  0  0  0  0  0  0  0  0
    0.6533  -53.3500   21.3828 C   0  0  0  0  0  0  0  0  0  0  0  0
   -0.8641  -52.0485   23.0421 N   0  0  0  0  0  0  0  0  0  0  0  0
    3.3296  -50.7657   25.8291 F   0  0  0  0  0  0  0  0  0  0  0  0
    1.9398  -51.3252   25.7560 C   0  0  0  0  0  0  0  0  0  0  0  0
    1.2327  -51.4071   24.4356 C   0  0  0  0  0  0  0  0  0  0  0  0
   -0.1571  -51.9666   24.3626 C   0  0  0  0  0  0  0  0  0  0  0  0
   -0.8398  -52.4443   25.6098 C   0  0  0  0  0  0  0  0  0  0  0  0
   -0.1328  -52.3624   26.9301 C   0  0  0  0  0  0  0  0  0  0  0  0
    1.2570  -51.8029   27.0032 C   0  0  0  0  0  0  0  0  0  0  0  0
    1.9641  -51.7210   28.3236 Cl  0  0  0  0  0  0  0  0  0  0  0  0
    2.3032  -52.2357   17.9497 O   0  0  0  0  0  0  0  0  0  0  0  0
    1.8500  -51.4496   16.7552 C   0  0  0  0  0  0  0  0  0  0  0  0
    2.1075  -51.9709   15.3725 C   0  0  0  0  0  0  0  0  0  0  0  0
    3.4726  -51.8414   14.7644 N   0  3  0  0  0  0  0  0  0  0  0  0
    4.5978  -52.7024   15.2569 C   0  0  0  0  0  0  0  0  0  0  0  0
    5.9629  -52.5729   14.6487 C   0  0  0  0  0  0  0  0  0  0  0  0
    6.2027  -51.5825   13.5480 O   0  0  0  0  0  0  0  0  0  0  0  0
    5.0774  -50.7215   13.0555 C   0  0  0  0  0  0  0  0  0  0  0  0
    3.7124  -50.8510   13.6637 C   0  0  0  0  0  0  0  0  0  0  0  0
   -0.5053  -50.0242   21.1478 H   0  0  0  0  0  0  0  0  0  0  0  0
    0.8312  -50.1032   18.9988 H   0  0  0  0  0  0  0  0  0  0  0  0
    1.9443  -54.2601   19.8440 H   0  0  0  0  0  0  0  0  0  0  0  0
    0.6078  -54.1810   21.9930 H   0  0  0  0  0  0  0  0  0  0  0  0
   -1.8478  -52.0715   23.0111 H   0  0  0  0  0  0  0  0  0  0  0  0
    1.7024  -51.0785   23.5775 H   0  0  0  0  0  0  0  0  0  0  0  0
   -1.7960  -52.8293   25.5595 H   0  0  0  0  0  0  0  0  0  0  0  0
   -0.6026  -52.6910   27.7882 H   0  0  0  0  0  0  0  0  0  0  0  0
    2.3238  -50.4923   16.8176 H   0  0  0  0  0  0  0  0  0  0  0  0
    0.7832  -51.4765   16.8334 H   0  0  0  0  0  0  0  0  0  0  0  0
    1.4290  -51.4629   14.7195 H   0  0  0  0  0  0  0  0  0  0  0  0
    1.9862  -53.0284   15.4817 H   0  0  0  0  0  0  0  0  0  0  0  0
    3.8949  -51.2629   15.4906 H   0  0  0  0  0  0  0  0  0  0  0  0
    4.2928  -53.7186   15.1179 H   0  0  0  0  0  0  0  0  0  0  0  0
    4.7434  -52.3657   16.2620 H   0  0  0  0  0  0  0  0  0  0  0  0
    6.2202  -53.5358   14.2593 H   0  0  0  0  0  0  0  0  0  0  0  0
    6.5561  -52.1936   15.4544 H   0  0  0  0  0  0  0  0  0  0  0  0
    4.9700  -50.9218   12.0099 H   0  0  0  0  0  0  0  0  0  0  0  0
    5.3803  -49.7351   13.3387 H   0  0  0  0  0  0  0  0  0  0  0  0
    3.0428  -51.1047   12.8686 H   0  0  0  0  0  0  0  0  0  0  0  0
    3.5677  -49.9071   14.1464 H   0  0  0  0  0  0  0  0  0  0  0  0
  1  2  2  0  0  0  0
  2  3  1  0  0  0  0
  2 25  1  0  0  0  0
  3  4  2  0  0  0  0
  3 26  1  0  0  0  0
  4 16  1  0  0  0  0
  4  5  1  0  0  0  0
  5  6  2  0  0  0  0
  5 27  1  0  0  0  0
  6  1  1  0  0  0  0
  6 28  1  0  0  0  0
  7  1  1  0  0  0  0
  7 29  1  0  0  0  0
  8  9  1  0  0  0  0
  9 10  2  0  0  0  0
 10 11  1  0  0  0  0
 10 30  1  0  0  0  0
 11  7  1  0  0  0  0
 11 12  2  0  0  0  0
 12 13  1  0  0  0  0
 12 31  1  0  0  0  0
 13 14  2  0  0  0  0
 13 32  1  0  0  0  0
 14 15  1  0  0  0  0
 14  9  1  0  0  0  0
 16 17  1  0  0  0  0
 17 18  1  0  0  0  0
 17 33  1  0  0  0  0
 17 34  1  0  0  0  0
 18 19  1  0  0  0  0
 18 35  1  0  0  0  0
 18 36  1  0  0  0  0
 19 20  1  0  0  0  0
 19 37  1  0  0  0  0
 20 21  1  0  0  0  0
 20 38  1  0  0  0  0
 20 39  1  0  0  0  0
 21 22  1  0  0  0  0
 21 40  1  0  0  0  0
 21 41  1  0  0  0  0
 22 23  1  0  0  0  0
 23 24  1  0  0  0  0
 23 42  1  0  0  0  0
 23 43  1  0  0  0  0
 24 19  1  0  0  0  0
 24 44  1  0  0  0  0
 24 45  1  0  0  0  0
M  CHG  1  19   1
M  END
>  <minimizedAffinity>
-7.52073

$$$$

 OpenBabel09092411003D

 45 47  0  0  0  0  0  0  0  0999 V2000
    0.0671  -50.9954   22.1327 C   0  0  0  0  0  0  0  0  0  0  0  0
    0.7140  -50.5932   20.8404 C   0  0  0  0  0  0  0  0  0  0  0  0
    0.3337  -49.3003   20.1819 C   0  0  0  0  0  0  0  0  0  0  0  0
   -0.6935  -48.4095   20.8156 C   0  0  0  0  0  0  0  0  0  0  0  0
   -1.3404  -48.8117   22.1077 C   0  0  0  0  0  0  0  0  0  0  0  0
   -0.9601  -50.1047   22.7663 C   0  0  0  0  0  0  0  0  0  0  0  0
    0.4474  -52.2883   22.7912 N   0  0  0  0  0  0  0  0  0  0  0  0
    1.4002  -52.4728   28.7122 F   0  0  0  0  0  0  0  0  0  0  0  0
    1.1620  -52.4267   27.2320 C   0  0  0  0  0  0  0  0  0  0  0  0
    1.6500  -51.2569   26.4299 C   0  0  0  0  0  0  0  0  0  0  0  0
    1.4118  -51.2108   24.9496 C   0  0  0  0  0  0  0  0  0  0  0  0
    0.6856  -52.3344   24.2715 C   0  0  0  0  0  0  0  0  0  0  0  0
    0.1975  -53.5042   25.0736 C   0  0  0  0  0  0  0  0  0  0  0  0
    0.4357  -53.5503   26.5538 C   0  0  0  0  0  0  0  0  0  0  0  0
   -0.0524  -54.7202   27.3559 Cl  0  0  0  0  0  0  0  0  0  0  0  0
   -2.3676  -47.9210   22.7413 O   0  0  0  0  0  0  0  0  0  0  0  0
   -2.1971  -47.4722   24.1624 C   0  0  0  0  0  0  0  0  0  0  0  0
   -3.1548  -47.9415   25.2172 C   0  0  0  0  0  0  0  0  0  0  0  0
   -3.2687  -49.4042   25.5295 N   0  3  0  0  0  0  0  0  0  0  0  0
   -2.4401  -50.0037   26.6267 C   0  0  0  0  0  0  0  0  0  0  0  0
   -2.5541  -51.4663   26.9389 C   0  0  0  0  0  0  0  0  0  0  0  0
   -3.4968  -52.3296   26.1539 O   0  0  0  0  0  0  0  0  0  0  0  0
   -4.3254  -51.7301   25.0567 C   0  0  0  0  0  0  0  0  0  0  0  0
   -4.2114  -50.2674   24.7445 C   0  0  0  0  0  0  0  0  0  0  0  0
    1.4207  -51.2060   20.4044 H   0  0  0  0  0  0  0  0  0  0  0  0
    0.7787  -49.0236   19.2929 H   0  0  0  0  0  0  0  0  0  0  0  0
   -0.9551  -47.5199   20.3625 H   0  0  0  0  0  0  0  0  0  0  0  0
   -1.4052  -50.3814   23.6553 H   0  0  0  0  0  0  0  0  0  0  0  0
    0.5407  -53.1066   22.2519 H   0  0  0  0  0  0  0  0  0  0  0  0
    2.1496  -50.4838   26.8965 H   0  0  0  0  0  0  0  0  0  0  0  0
    1.7476  -50.4060   24.3978 H   0  0  0  0  0  0  0  0  0  0  0  0
   -0.3022  -54.2773   24.6070 H   0  0  0  0  0  0  0  0  0  0  0  0
   -2.2437  -46.4032   24.1564 H   0  0  0  0  0  0  0  0  0  0  0  0
   -1.2711  -47.9226   24.4531 H   0  0  0  0  0  0  0  0  0  0  0  0
   -4.1283  -47.6126   24.9189 H   0  0  0  0  0  0  0  0  0  0  0  0
   -2.7506  -47.5285   26.1177 H   0  0  0  0  0  0  0  0  0  0  0  0
   -2.3052  -49.3009   25.8481 H   0  0  0  0  0  0  0  0  0  0  0  0
   -2.6875  -49.4761   27.5241 H   0  0  0  0  0  0  0  0  0  0  0  0
   -1.4396  -49.9078   26.2597 H   0  0  0  0  0  0  0  0  0  0  0  0
   -2.8485  -51.5411   27.9649 H   0  0  0  0  0  0  0  0  0  0  0  0
   -1.5910  -51.8500   26.6742 H   0  0  0  0  0  0  0  0  0  0  0  0
   -5.3493  -51.9135   25.3075 H   0  0  0  0  0  0  0  0  0  0  0  0
   -3.9431  -52.2003   24.1749 H   0  0  0  0  0  0  0  0  0  0  0  0
   -5.1883  -49.8484   24.8667 H   0  0  0  0  0  0  0  0  0  0  0  0
   -3.7918  -50.2580   23.7603 H   0  0  0  0  0  0  0  0  0  0  0  0
  1  2  2  0  0  0  0
  2  3  1  0  0  0  0
  2 25  1  0  0  0  0
  3  4  2  0  0  0  0
  3 26  1  0  0  0  0
  4  5  1  0  0  0  0
  4 27  1  0  0  0  0
  5 16  1  0  0  0  0
  5  6  2  0  0  0  0
  6  1  1  0  0  0  0
  6 28  1  0  0  0  0
  7  1  1  0  0  0  0
  7 29  1  0  0  0  0
  8  9  1  0  0  0  0
  9 10  2  0  0  0  0
 10 11  1  0  0  0  0
 10 30  1  0  0  0  0
 11 12  2  0  0  0  0
 11 31  1  0  0  0  0
 12  7  1  0  0  0  0
 12 13  1  0  0  0  0
 13 14  2  0  0  0  0
 13 32  1  0  0  0  0
 14 15  1  0  0  0  0
 14  9  1  0  0  0  0
 16 17  1  0  0  0  0
 17 18  1  0  0  0  0
 17 33  1  0  0  0  0
 17 34  1  0  0  0  0
 18 19  1  0  0  0  0
 18 35  1  0  0  0  0
 18 36  1  0  0  0  0
 19 20  1  0  0  0  0
 19 37  1  0  0  0  0
 20 21  1  0  0  0  0
 20 38  1  0  0  0  0
 20 39  1  0  0  0  0
 21 22  1  0  0  0  0
 21 40  1  0  0  0  0
 21 41  1  0  0  0  0
 22 23  1  0  0  0  0
 23 24  1  0  0  0  0
 23 42  1  0  0  0  0
 23 43  1  0  0  0  0
 24 19  1  0  0  0  0
 24 44  1  0  0  0  0
 24 45  1  0  0  0  0
M  CHG  1  19   1
M  END
>  <minimizedAffinity>
-7.41195

$$$$

 OpenBabel09092411003D

 45 47  0  0  0  0  0  0  0  0999 V2000
    0.5751  -52.0105   25.2852 C   0  0  0  0  0  0  0  0  0  0  0  0
    1.9589  -51.4433   25.1687 C   0  0  0  0  0  0  0  0  0  0  0  0
    2.8088  -51.2816   26.3941 C   0  0  0  0  0  0  0  0  0  0  0  0
    2.2748  -51.6871   27.7360 C   0  0  0  0  0  0  0  0  0  0  0  0
    0.8911  -52.2543   27.8524 C   0  0  0  0  0  0  0  0  0  0  0  0
    0.0413  -52.4160   26.6270 C   0  0  0  0  0  0  0  0  0  0  0  0
   -0.2747  -52.1723   24.0598 N   0  0  0  0  0  0  0  0  0  0  0  0
    0.9533  -49.9772   19.5129 F   0  0  0  0  0  0  0  0  0  0  0  0
    0.9821  -51.1609   20.4338 C   0  0  0  0  0  0  0  0  0  0  0  0
    0.3393  -51.0747   21.7863 C   0  0  0  0  0  0  0  0  0  0  0  0
    0.3682  -52.2584   22.7072 C   0  0  0  0  0  0  0  0  0  0  0  0
    1.0399  -53.5282   22.2756 C   0  0  0  0  0  0  0  0  0  0  0  0
    1.6827  -53.6144   20.9231 C   0  0  0  0  0  0  0  0  0  0  0  0
    1.6539  -52.4307   20.0022 C   0  0  0  0  0  0  0  0  0  0  0  0
    2.2967  -52.5168   18.6497 Cl  0  0  0  0  0  0  0  0  0  0  0  0
   -1.3425  -52.9832   26.7435 O   0  0  0  0  0  0  0  0  0  0  0  0
   -2.3435  -52.3375   27.6551 C   0  0  0  0  0  0  0  0  0  0  0  0
   -3.2673  -51.2808   27.1261 C   0  0  0  0  0  0  0  0  0  0  0  0
   -3.0969  -50.7675   25.7270 N   0  3  0  0  0  0  0  0  0  0  0  0
   -3.7640  -51.4721   24.5831 C   0  0  0  0  0  0  0  0  0  0  0  0
   -3.5936  -50.9589   23.1840 C   0  0  0  0  0  0  0  0  0  0  0  0
   -2.7560  -49.7411   22.9288 O   0  0  0  0  0  0  0  0  0  0  0  0
   -2.0889  -49.0364   24.0726 C   0  0  0  0  0  0  0  0  0  0  0  0
   -2.2593  -49.5496   25.4717 C   0  0  0  0  0  0  0  0  0  0  0  0
    2.3262  -51.1643   24.2455 H   0  0  0  0  0  0  0  0  0  0  0  0
    3.7608  -50.8914   26.3140 H   0  0  0  0  0  0  0  0  0  0  0  0
    2.8595  -51.5758   28.5791 H   0  0  0  0  0  0  0  0  0  0  0  0
    0.5238  -52.5333   28.7756 H   0  0  0  0  0  0  0  0  0  0  0  0
   -1.2544  -52.2220   24.1432 H   0  0  0  0  0  0  0  0  0  0  0  0
   -0.1228  -50.2010   22.0833 H   0  0  0  0  0  0  0  0  0  0  0  0
    1.0598  -54.3426   22.9092 H   0  0  0  0  0  0  0  0  0  0  0  0
    2.1448  -54.4881   20.6261 H   0  0  0  0  0  0  0  0  0  0  0  0
   -1.7902  -51.8918   28.4552 H   0  0  0  0  0  0  0  0  0  0  0  0
   -3.0051  -53.1412   27.9026 H   0  0  0  0  0  0  0  0  0  0  0  0
   -3.1768  -50.4370   27.7778 H   0  0  0  0  0  0  0  0  0  0  0  0
   -4.2147  -51.7769   27.0923 H   0  0  0  0  0  0  0  0  0  0  0  0
   -3.7921  -50.6857   26.4689 H   0  0  0  0  0  0  0  0  0  0  0  0
   -4.8142  -51.4678   24.7879 H   0  0  0  0  0  0  0  0  0  0  0  0
   -3.2715  -52.4217   24.5584 H   0  0  0  0  0  0  0  0  0  0  0  0
   -4.5736  -50.7431   22.8126 H   0  0  0  0  0  0  0  0  0  0  0  0
   -3.0454  -51.7403   22.7004 H   0  0  0  0  0  0  0  0  0  0  0  0
   -2.4492  -48.0289   24.0671 H   0  0  0  0  0  0  0  0  0  0  0  0
   -1.0472  -49.1873   23.8805 H   0  0  0  0  0  0  0  0  0  0  0  0
   -2.6898  -48.7535   26.0425 H   0  0  0  0  0  0  0  0  0  0  0  0
   -1.2734  -49.8688   25.7384 H   0  0  0  0  0  0  0  0  0  0  0  0
  1  2  2  0  0  0  0
  2  3  1  0  0  0  0
  2 25  1  0  0  0  0
  3  4  2  0  0  0  0
  3 26  1  0  0  0  0
  4  5  1  0  0  0  0
  4 27  1  0  0  0  0
  5  6  2  0  0  0  0
  5 28  1  0  0  0  0
  6 16  1  0  0  0  0
  6  1  1  0  0  0  0
  7  1  1  0  0  0  0
  7 29  1  0  0  0  0
  8  9  1  0  0  0  0
  9 10  2  0  0  0  0
 10 11  1  0  0  0  0
 10 30  1  0  0  0  0
 11  7  1  0  0  0  0
 11 12  2  0  0  0  0
 12 13  1  0  0  0  0
 12 31  1  0  0  0  0
 13 14  2  0  0  0  0
 13 32  1  0  0  0  0
 14 15  1  0  0  0  0
 14  9  1  0  0  0  0
 16 17  1  0  0  0  0
 17 18  1  0  0  0  0
 17 33  1  0  0  0  0
 17 34  1  0  0  0  0
 18 19  1  0  0  0  0
 18 35  1  0  0  0  0
 18 36  1  0  0  0  0
 19 20  1  0  0  0  0
 19 37  1  0  0  0  0
 20 21  1  0  0  0  0
 20 38  1  0  0  0  0
 20 39  1  0  0  0  0
 21 22  1  0  0  0  0
 21 40  1  0  0  0  0
 21 41  1  0  0  0  0
 22 23  1  0  0  0  0
 23 24  1  0  0  0  0
 23 42  1  0  0  0  0
 23 43  1  0  0  0  0
 24 19  1  0  0  0  0
 24 44  1  0  0  0  0
 24 45  1  0  0  0  0
M  CHG  1  19   1
M  END
>  <minimizedAffinity>
-7.60427

$$$$

 OpenBabel09092411003D

 53 55  0  0  0  0  0  0  0  0999 V2000
    0.9574  -51.8422   25.4816 C   0  0  0  0  0  0  0  0  0  0  0  0
    2.3237  -51.3799   25.8936 C   0  0  0  0  0  0  0  0  0  0  0  0
    2.7294  -51.4315   27.3367 C   0  0  0  0  0  0  0  0  0  0  0  0
    1.7690  -51.9454   28.3679 C   0  0  0  0  0  0  0  0  0  0  0  0
    0.4028  -52.4077   27.9560 C   0  0  0  0  0  0  0  0  0  0  0  0
   -0.0031  -52.3561   26.5129 C   0  0  0  0  0  0  0  0  0  0  0  0
    1.5671  -54.1531   23.6685 O   0  0  0  0  0  0  0  0  0  0  0  0
    0.8565  -52.9460   23.1319 C   0  0  0  0  0  0  0  0  0  0  0  0
    0.5516  -51.7905   24.0385 N   0  0  0  0  0  0  0  0  0  0  0  0
    0.4507  -52.8944   21.6887 C   0  0  0  0  0  0  0  0  0  0  0  0
    1.4953  -52.7649   20.6201 C   0  0  0  0  0  0  0  0  0  0  0  0
    1.2598  -51.8607   19.4466 C   0  0  0  0  0  0  0  0  0  0  0  0
    0.4652  -50.6002   19.6187 C   0  0  0  0  0  0  0  0  0  0  0  0
    0.2297  -49.6961   18.4452 C   0  0  0  0  0  0  0  0  0  0  0  0
    0.7889  -50.0524   17.0997 C   0  0  0  0  0  0  0  0  0  0  0  0
    0.5533  -49.1482   15.9263 Cl  0  0  0  0  0  0  0  0  0  0  0  0
    1.5835  -51.3129   16.9277 C   0  0  0  0  0  0  0  0  0  0  0  0
    2.1427  -51.6693   15.5822 F   0  0  0  0  0  0  0  0  0  0  0  0
    1.8190  -52.2170   18.1012 C   0  0  0  0  0  0  0  0  0  0  0  0
   -1.3693  -52.8183   26.1010 O   0  0  0  0  0  0  0  0  0  0  0  0
   -2.5886  -52.1682   26.6845 C   0  0  0  0  0  0  0  0  0  0  0  0
   -3.4982  -51.3581   25.8091 C   0  0  0  0  0  0  0  0  0  0  0  0
   -2.9827  -50.7772   24.5258 N   0  3  0  0  0  0  0  0  0  0  0  0
   -3.1627  -51.5253   23.2382 C   0  0  0  0  0  0  0  0  0  0  0  0
   -2.6471  -50.9444   21.9550 C   0  0  0  0  0  0  0  0  0  0  0  0
   -1.9516  -49.6155   21.9592 O   0  0  0  0  0  0  0  0  0  0  0  0
   -1.7716  -48.8673   23.2469 C   0  0  0  0  0  0  0  0  0  0  0  0
   -2.2871  -49.4482   24.5302 C   0  0  0  0  0  0  0  0  0  0  0  0
    2.9845  -51.0264   25.1841 H   0  0  0  0  0  0  0  0  0  0  0  0
    3.6694  -51.1134   27.6201 H   0  0  0  0  0  0  0  0  0  0  0  0
    2.0482  -51.9809   29.3608 H   0  0  0  0  0  0  0  0  0  0  0  0
   -0.2579  -52.7613   28.6655 H   0  0  0  0  0  0  0  0  0  0  0  0
    0.0852  -50.9982   23.6864 H   0  0  0  0  0  0  0  0  0  0  0  0
   -0.2057  -52.0561   21.5822 H   0  0  0  0  0  0  0  0  0  0  0  0
    0.0393  -53.8666   21.5140 H   0  0  0  0  0  0  0  0  0  0  0  0
    1.6574  -53.7464   20.2261 H   0  0  0  0  0  0  0  0  0  0  0  0
    2.3122  -52.2984   21.1300 H   0  0  0  0  0  0  0  0  0  0  0  0
    0.0806  -50.3550   20.5444 H   0  0  0  0  0  0  0  0  0  0  0  0
   -0.3171  -48.8289   18.5635 H   0  0  0  0  0  0  0  0  0  0  0  0
    2.3658  -53.0842   17.9829 H   0  0  0  0  0  0  0  0  0  0  0  0
   -2.2490  -51.5175   27.4631 H   0  0  0  0  0  0  0  0  0  0  0  0
   -3.1982  -53.0000   26.9696 H   0  0  0  0  0  0  0  0  0  0  0  0
   -3.8470  -50.5380   26.4012 H   0  0  0  0  0  0  0  0  0  0  0  0
   -4.2245  -52.0723   25.4815 H   0  0  0  0  0  0  0  0  0  0  0  0
   -3.7026  -50.4807   23.8668 H   0  0  0  0  0  0  0  0  0  0  0  0
   -4.2149  -51.6714   23.1103 H   0  0  0  0  0  0  0  0  0  0  0  0
   -2.5579  -52.3975   23.3739 H   0  0  0  0  0  0  0  0  0  0  0  0
   -3.4870  -50.8513   21.2986 H   0  0  0  0  0  0  0  0  0  0  0  0
   -1.8731  -51.6261   21.6700 H   0  0  0  0  0  0  0  0  0  0  0  0
   -2.2510  -47.9188   23.1226 H   0  0  0  0  0  0  0  0  0  0  0  0
   -0.7106  -48.8678   23.3854 H   0  0  0  0  0  0  0  0  0  0  0  0
   -2.9787  -48.7389   24.9345 H   0  0  0  0  0  0  0  0  0  0  0  0
   -1.3952  -49.6393   25.0895 H   0  0  0  0  0  0  0  0  0  0  0  0
  1  2  2  0  0  0  0
  2  3  1  0  0  0  0
  2 29  1  0  0  0  0
  3  4  2  0  0  0  0
  3 30  1  0  0  0  0
  4  5  1  0  0  0  0
  4 31  1  0  0  0  0
  5  6  2  0  0  0  0
  5 32  1  0  0  0  0
  6 20  1  0  0  0  0
  6  1  1  0  0  0  0
  7  8  2  0  0  0  0
  8 10  1  0  0  0  0
  8  9  1  0  0  0  0
  9  1  1  0  0  0  0
  9 33  1  0  0  0  0
 10 11  1  0  0  0  0
 10 34  1  0  0  0  0
 10 35  1  0  0  0  0
 11 12  1  0  0  0  0
 11 36  1  0  0  0  0
 11 37  1  0  0  0  0
 12 13  2  0  0  0  0
 13 14  1  0  0  0  0
 13 38  1  0  0  0  0
 14 15  2  0  0  0  0
 14 39  1  0  0  0  0
 15 16  1  0  0  0  0
 15 17  1  0  0  0  0
 17 18  1  0  0  0  0
 17 19  2  0  0  0  0
 19 12  1  0  0  0  0
 19 40  1  0  0  0  0
 20 21  1  0  0  0  0
 21 22  1  0  0  0  0
 21 41  1  0  0  0  0
 21 42  1  0  0  0  0
 22 23  1  0  0  0  0
 22 43  1  0  0  0  0
 22 44  1  0  0  0  0
 23 24  1  0  0  0  0
 23 45  1  0  0  0  0
 24 25  1  0  0  0  0
 24 46  1  0  0  0  0
 24 47  1  0  0  0  0
 25 26  1  0  0  0  0
 25 48  1  0  0  0  0
 25 49  1  0  0  0  0
 26 27  1  0  0  0  0
 27 28  1  0  0  0  0
 27 50  1  0  0  0  0
 27 51  1  0  0  0  0
 28 23  1  0  0  0  0
 28 52  1  0  0  0  0
 28 53  1  0  0  0  0
M  CHG  1  23   1
M  END
>  <minimizedAffinity>
-7.99501

$$$$

 OpenBabel09092411003D

 49 52  0  0  0  0  0  0  0  0999 V2000
    0.0254  -52.3431   24.5001 C   0  0  0  0  0  0  0  0  0  0  0  0
    0.6879  -51.2173   25.2374 C   0  0  0  0  0  0  0  0  0  0  0  0
   -0.1325  -50.2894   26.0835 C   0  0  0  0  0  0  0  0  0  0  0  0
   -1.6153  -50.4874   26.1924 C   0  0  0  0  0  0  0  0  0  0  0  0
   -2.2778  -51.6132   25.4551 C   0  0  0  0  0  0  0  0  0  0  0  0
   -3.7608  -51.8112   25.5640 Cl  0  0  0  0  0  0  0  0  0  0  0  0
   -1.4575  -52.5411   24.6090 C   0  0  0  0  0  0  0  0  0  0  0  0
    0.8458  -53.2711   23.6539 N   0  0  0  0  0  0  0  0  0  0  0  0
   -0.0548  -48.5186   17.5422 F   0  0  0  0  0  0  0  0  0  0  0  0
    0.4536  -49.8042   18.1243 C   0  0  0  0  0  0  0  0  0  0  0  0
    1.1702  -50.7912   17.2512 C   0  0  0  0  0  0  0  0  0  0  0  0
    1.6786  -52.0767   17.8333 N   0  0  0  0  0  0  0  0  0  0  0  0
    1.4704  -52.3753   19.2884 C   0  0  0  0  0  0  0  0  0  0  0  0
    1.9788  -53.6609   19.8705 N   0  0  0  0  0  0  0  0  0  0  0  0
    1.7707  -53.9595   21.3256 C   0  0  0  0  0  0  0  0  0  0  0  0
    1.0540  -52.9725   22.1988 C   0  0  0  0  0  0  0  0  0  0  0  0
    0.5456  -51.6869   21.6167 C   0  0  0  0  0  0  0  0  0  0  0  0
    0.7538  -51.3883   20.1615 C   0  0  0  0  0  0  0  0  0  0  0  0
    0.2454  -50.1028   19.5794 C   0  0  0  0  0  0  0  0  0  0  0  0
   -2.4358  -49.5594   27.0385 O   0  0  0  0  0  0  0  0  0  0  0  0
   -2.7942  -48.1962   26.5256 C   0  0  0  0  0  0  0  0  0  0  0  0
   -3.4011  -48.0435   25.1624 C   0  0  0  0  0  0  0  0  0  0  0  0
   -2.5554  -47.5835   24.0121 N   0  3  0  0  0  0  0  0  0  0  0  0
   -2.0013  -48.5838   23.0414 C   0  0  0  0  0  0  0  0  0  0  0  0
   -1.1555  -48.1237   21.8912 C   0  0  0  0  0  0  0  0  0  0  0  0
   -0.8640  -46.6634   21.7116 O   0  0  0  0  0  0  0  0  0  0  0  0
   -1.4181  -45.6631   22.6823 C   0  0  0  0  0  0  0  0  0  0  0  0
   -2.2639  -46.1231   23.8325 C   0  0  0  0  0  0  0  0  0  0  0  0
    1.7081  -51.0811   25.1625 H   0  0  0  0  0  0  0  0  0  0  0  0
    0.3233  -49.5148   26.5907 H   0  0  0  0  0  0  0  0  0  0  0  0
   -1.9133  -53.3157   24.1018 H   0  0  0  0  0  0  0  0  0  0  0  0
    1.2476  -54.0761   24.0536 H   0  0  0  0  0  0  0  0  0  0  0  0
    1.3134  -50.5858   16.2500 H   0  0  0  0  0  0  0  0  0  0  0  0
    2.1206  -54.8440   21.7260 H   0  0  0  0  0  0  0  0  0  0  0  0
    0.0526  -51.0078   22.2174 H   0  0  0  0  0  0  0  0  0  0  0  0
   -0.2477  -49.4238   20.1801 H   0  0  0  0  0  0  0  0  0  0  0  0
   -1.8938  -47.6182   26.5294 H   0  0  0  0  0  0  0  0  0  0  0  0
   -3.5807  -47.8857   27.1812 H   0  0  0  0  0  0  0  0  0  0  0  0
   -4.2018  -47.3401   25.2578 H   0  0  0  0  0  0  0  0  0  0  0  0
   -3.6573  -49.0470   24.8935 H   0  0  0  0  0  0  0  0  0  0  0  0
   -1.8061  -48.2418   24.2257 H   0  0  0  0  0  0  0  0  0  0  0  0
   -2.8375  -49.1029   22.6217 H   0  0  0  0  0  0  0  0  0  0  0  0
   -1.3181  -49.1523   23.6372 H   0  0  0  0  0  0  0  0  0  0  0  0
   -1.6433  -48.4535   20.9978 H   0  0  0  0  0  0  0  0  0  0  0  0
   -0.1949  -48.5411   22.1099 H   0  0  0  0  0  0  0  0  0  0  0  0
   -2.0141  -44.9793   22.1147 H   0  0  0  0  0  0  0  0  0  0  0  0
   -0.5436  -45.2738   23.1604 H   0  0  0  0  0  0  0  0  0  0  0  0
   -3.2083  -45.6289   23.7385 H   0  0  0  0  0  0  0  0  0  0  0  0
   -1.6668  -45.8845   24.6878 H   0  0  0  0  0  0  0  0  0  0  0  0
  1  2  2  0  0  0  0
  2  3  1  0  0  0  0
  2 29  1  0  0  0  0
  3  4  2  0  0  0  0
  3 30  1  0  0  0  0
  4 20  1  0  0  0  0
  4  5  1  0  0  0  0
  5  6  1  0  0  0  0
  5  7  2  0  0  0  0
  7  1  1  0  0  0  0
  7 31  1  0  0  0  0
  8  1  1  0  0  0  0
  8 32  1  0  0  0  0
  9 10  1  0  0  0  0
 10 11  2  0  0  0  0
 11 12  1  0  0  0  0
 11 33  1  0  0  0  0
 12 13  2  0  0  0  0
 13 14  1  0  0  0  0
 14 15  2  0  0  0  0
 15 16  1  0  0  0  0
 15 34  1  0  0  0  0
 16  8  1  0  0  0  0
 16 17  2  0  0  0  0
 17 18  1  0  0  0  0
 17 35  1  0  0  0  0
 18 19  2  0  0  0  0
 18 13  1  0  0  0  0
 19 10  1  0  0  0  0
 19 36  1  0  0  0  0
 20 21  1  0  0  0  0
 21 22  1  0  0  0  0
 21 37  1  0  0  0  0
 21 38  1  0  0  0  0
 22 23  1  0  0  0  0
 22 39  1  0  0  0  0
 22 40  1  0  0  0  0
 23 24  1  0  0  0  0
 23 41  1  0  0  0  0
 24 25  1  0  0  0  0
 24 42  1  0  0  0  0
 24 43  1  0  0  0  0
 25 26  1  0  0  0  0
 25 44  1  0  0  0  0
 25 45  1  0  0  0  0
 26 27  1  0  0  0  0
 27 28  1  0  0  0  0
 27 46  1  0  0  0  0
 27 47  1  0  0  0  0
 28 23  1  0  0  0  0
 28 48  1  0  0  0  0
 28 49  1  0  0  0  0
M  CHG  1  23   1
M  END
>  <minimizedAffinity>
-7.87583

$$$$

 OpenBabel09092411003D

 49 52  0  0  0  0  0  0  0  0999 V2000
   -0.2731  -50.3604   22.2436 C   0  0  0  0  0  0  0  0  0  0  0  0
   -0.1434  -49.4894   21.0293 C   0  0  0  0  0  0  0  0  0  0  0  0
    0.4030  -50.0581   19.7534 C   0  0  0  0  0  0  0  0  0  0  0  0
    0.8198  -51.4977   19.6917 C   0  0  0  0  0  0  0  0  0  0  0  0
    0.6901  -52.3687   20.9061 C   0  0  0  0  0  0  0  0  0  0  0  0
    1.1068  -53.8083   20.8444 Cl  0  0  0  0  0  0  0  0  0  0  0  0
    0.1437  -51.8001   22.1820 C   0  0  0  0  0  0  0  0  0  0  0  0
   -0.8195  -49.7917   23.5196 N   0  0  0  0  0  0  0  0  0  0  0  0
   -1.8111  -53.7354   28.6396 F   0  0  0  0  0  0  0  0  0  0  0  0
   -1.0255  -52.8632   27.7057 C   0  0  0  0  0  0  0  0  0  0  0  0
    0.4428  -52.6547   27.9309 C   0  0  0  0  0  0  0  0  0  0  0  0
    1.2284  -51.7826   26.9970 C   0  0  0  0  0  0  0  0  0  0  0  0
    2.6967  -51.5741   27.2223 Cl  0  0  0  0  0  0  0  0  0  0  0  0
    0.5458  -51.1190   25.8379 C   0  0  0  0  0  0  0  0  0  0  0  0
   -0.9225  -51.3275   25.6127 C   0  0  0  0  0  0  0  0  0  0  0  0
   -1.6052  -50.6639   24.4535 C   0  0  0  0  0  0  0  0  0  0  0  0
   -3.0734  -50.8724   24.2283 N   0  0  0  0  0  0  0  0  0  0  0  0
   -3.8590  -51.7445   25.1622 C   0  0  0  0  0  0  0  0  0  0  0  0
   -3.1763  -52.4081   26.3213 N   0  0  0  0  0  0  0  0  0  0  0  0
   -1.7081  -52.1996   26.5466 C   0  0  0  0  0  0  0  0  0  0  0  0
    1.3662  -52.0663   18.4158 O   0  0  0  0  0  0  0  0  0  0  0  0
    1.1662  -51.3340   17.1221 C   0  0  0  0  0  0  0  0  0  0  0  0
    1.4761  -52.0124   15.8206 C   0  0  0  0  0  0  0  0  0  0  0  0
    2.8466  -51.8963   15.2221 N   0  3  0  0  0  0  0  0  0  0  0  0
    3.0431  -51.1473   13.9374 C   0  0  0  0  0  0  0  0  0  0  0  0
    4.4136  -51.0313   13.3390 C   0  0  0  0  0  0  0  0  0  0  0  0
    5.5877  -51.6643   14.0252 O   0  0  0  0  0  0  0  0  0  0  0  0
    5.3912  -52.4132   15.3098 C   0  0  0  0  0  0  0  0  0  0  0  0
    4.0207  -52.5292   15.9083 C   0  0  0  0  0  0  0  0  0  0  0  0
   -0.4301  -48.4989   21.0717 H   0  0  0  0  0  0  0  0  0  0  0  0
    0.4922  -49.4589   18.9179 H   0  0  0  0  0  0  0  0  0  0  0  0
    0.0545  -52.3993   23.0175 H   0  0  0  0  0  0  0  0  0  0  0  0
   -0.6625  -48.8461   23.7441 H   0  0  0  0  0  0  0  0  0  0  0  0
    0.9125  -53.1113   28.7284 H   0  0  0  0  0  0  0  0  0  0  0  0
    1.0863  -50.5190   25.1954 H   0  0  0  0  0  0  0  0  0  0  0  0
   -4.8692  -51.8880   25.0073 H   0  0  0  0  0  0  0  0  0  0  0  0
    1.7770  -50.4566   17.1662 H   0  0  0  0  0  0  0  0  0  0  0  0
    0.1063  -51.1938   17.0801 H   0  0  0  0  0  0  0  0  0  0  0  0
    0.7895  -51.6230   15.0981 H   0  0  0  0  0  0  0  0  0  0  0  0
    1.3999  -53.0523   16.0610 H   0  0  0  0  0  0  0  0  0  0  0  0
    1.9030  -51.6982   14.8892 H   0  0  0  0  0  0  0  0  0  0  0  0
    2.6937  -50.1499   14.1048 H   0  0  0  0  0  0  0  0  0  0  0  0
    2.5122  -51.7410   13.2229 H   0  0  0  0  0  0  0  0  0  0  0  0
    4.6287  -49.9861   13.2600 H   0  0  0  0  0  0  0  0  0  0  0  0
    4.3321  -51.5870   12.4283 H   0  0  0  0  0  0  0  0  0  0  0  0
    6.0089  -51.9372   16.0424 H   0  0  0  0  0  0  0  0  0  0  0  0
    5.6302  -53.4221   15.0453 H   0  0  0  0  0  0  0  0  0  0  0  0
    4.0740  -52.1009   16.8874 H   0  0  0  0  0  0  0  0  0  0  0  0
    3.8104  -53.5761   15.8401 H   0  0  0  0  0  0  0  0  0  0  0  0
  1  2  2  0  0  0  0
  2  3  1  0  0  0  0
  2 30  1  0  0  0  0
  3  4  2  0  0  0  0
  3 31  1  0  0  0  0
  4 21  1  0  0  0  0
  4  5  1  0  0  0  0
  5  6  1  0  0  0  0
  5  7  2  0  0  0  0
  7  1  1  0  0  0  0
  7 32  1  0  0  0  0
  8  1  1  0  0  0  0
  8 33  1  0  0  0  0
  9 10  1  0  0  0  0
 10 11  2  0  0  0  0
 11 12  1  0  0  0  0
 11 34  1  0  0  0  0
 12 13  1  0  0  0  0
 12 14  2  0  0  0  0
 14 15  1  0  0  0  0
 14 35  1  0  0  0  0
 15 16  2  0  0  0  0
 16  8  1  0  0  0  0
 16 17  1  0  0  0  0
 17 18  2  0  0  0  0
 18 19  1  0  0  0  0
 18 36  1  0  0  0  0
 19 20  2  0  0  0  0
 20 10  1  0  0  0  0
 20 15  1  0  0  0  0
 21 22  1  0  0  0  0
 22 23  1  0  0  0  0
 22 37  1  0  0  0  0
 22 38  1  0  0  0  0
 23 24  1  0  0  0  0
 23 39  1  0  0  0  0
 23 40  1  0  0  0  0
 24 25  1  0  0  0  0
 24 41  1  0  0  0  0
 25 26  1  0  0  0  0
 25 42  1  0  0  0  0
 25 43  1  0  0  0  0
 26 27  1  0  0  0  0
 26 44  1  0  0  0  0
 26 45  1  0  0  0  0
 27 28  1  0  0  0  0
 28 29  1  0  0  0  0
 28 46  1  0  0  0  0
 28 47  1  0  0  0  0
 29 24  1  0  0  0  0
 29 48  1  0  0  0  0
 29 49  1  0  0  0  0
M  CHG  1  24   1
M  END
>  <minimizedAffinity>
-8.84097

$$$$

 OpenBabel09092411003D

 35 36  0  0  0  0  0  0  0  0999 V2000
    1.8263  -52.8216   19.1208 N   0  0  0  0  0  0  0  0  0  0  0  0
    1.3803  -51.6951   18.2364 C   0  0  0  0  0  0  0  0  0  0  0  0
    0.4062  -50.6775   18.7518 C   0  0  0  0  0  0  0  0  0  0  0  0
   -0.0398  -49.5510   17.8674 C   0  0  0  0  0  0  0  0  0  0  0  0
    0.4883  -49.4422   16.4676 C   0  0  0  0  0  0  0  0  0  0  0  0
    1.4623  -50.4598   15.9523 C   0  0  0  0  0  0  0  0  0  0  0  0
    1.9083  -51.5863   16.8367 C   0  0  0  0  0  0  0  0  0  0  0  0
    2.8824  -52.6039   16.3214 Cl  0  0  0  0  0  0  0  0  0  0  0  0
    0.0423  -48.3157   15.5832 C   0  0  0  0  0  0  0  0  0  0  0  0
   -0.4037  -47.1893   14.6988 N   0  0  0  0  0  0  0  0  0  0  0  0
    0.8304  -53.5350   19.9864 C   0  0  0  0  0  0  0  0  0  0  0  0
    0.8143  -52.8476   24.4335 C   0  0  0  0  0  0  0  0  0  0  0  0
    0.1438  -51.8646   23.5202 C   0  0  0  0  0  0  0  0  0  0  0  0
    0.1492  -52.0937   22.0379 C   0  0  0  0  0  0  0  0  0  0  0  0
    0.8250  -53.3059   21.4687 C   0  0  0  0  0  0  0  0  0  0  0  0
    1.4955  -54.2889   22.3820 C   0  0  0  0  0  0  0  0  0  0  0  0
    1.4901  -54.0598   23.8644 N   0  0  0  0  0  0  0  0  0  0  0  0
    1.3876  -51.3556   26.4817 C   0  0  0  0  0  0  0  0  0  0  0  0
    0.8089  -52.6185   25.9159 N   0  0  0  0  0  0  0  0  0  0  0  0
    0.2248  -53.6523   26.8325 C   0  0  0  0  0  0  0  0  0  0  0  0
    2.7727  -53.0927   19.1331 H   0  0  0  0  0  0  0  0  0  0  0  0
    0.0429  -50.7524   19.7148 H   0  0  0  0  0  0  0  0  0  0  0  0
   -0.7099  -48.8508   18.2220 H   0  0  0  0  0  0  0  0  0  0  0  0
    1.8256  -50.3849   14.9893 H   0  0  0  0  0  0  0  0  0  0  0  0
   -0.1406  -53.2633   19.6283 H   0  0  0  0  0  0  0  0  0  0  0  0
    1.1181  -54.5617   19.8973 H   0  0  0  0  0  0  0  0  0  0  0  0
   -0.3212  -51.0307   23.9117 H   0  0  0  0  0  0  0  0  0  0  0  0
   -0.3120  -51.4173   21.4096 H   0  0  0  0  0  0  0  0  0  0  0  0
    1.9605  -55.1228   21.9905 H   0  0  0  0  0  0  0  0  0  0  0  0
    1.2963  -51.3678   27.5477 H   0  0  0  0  0  0  0  0  0  0  0  0
    0.8584  -50.5131   26.0880 H   0  0  0  0  0  0  0  0  0  0  0  0
    2.4209  -51.2851   26.2130 H   0  0  0  0  0  0  0  0  0  0  0  0
    0.3085  -53.3188   27.8457 H   0  0  0  0  0  0  0  0  0  0  0  0
    0.7559  -54.5738   26.7153 H   0  0  0  0  0  0  0  0  0  0  0  0
   -0.8067  -53.8018   26.5903 H   0  0  0  0  0  0  0  0  0  0  0  0
  1  2  1  0  0  0  0
  1 21  1  0  0  0  0
  2  3  2  0  0  0  0
  3  4  1  0  0  0  0
  3 22  1  0  0  0  0
  4  5  2  0  0  0  0
  4 23  1  0  0  0  0
  5  9  1  0  0  0  0
  5  6  1  0  0  0  0
  6  7  2  0  0  0  0
  6 24  1  0  0  0  0
  7  8  1  0  0  0  0
  7  2  1  0  0  0  0
  9 10  3  0  0  0  0
 11  1  1  0  0  0  0
 11 25  1  0  0  0  0
 11 26  1  0  0  0  0
 12 13  2  0  0  0  0
 13 14  1  0  0  0  0
 13 27  1  0  0  0  0
 14 15  2  0  0  0  0
 14 28  1  0  0  0  0
 15 11  1  0  0  0  0
 15 16  1  0  0  0  0
 16 17  2  0  0  0  0
 16 29  1  0  0  0  0
 17 12  1  0  0  0  0
 18 19  1  0  0  0  0
 18 30  1  0  0  0  0
 18 31  1  0  0  0  0
 18 32  1  0  0  0  0
 19 20  1  0  0  0  0
 19 12  1  0  0  0  0
 20 33  1  0  0  0  0
 20 34  1  0  0  0  0
 20 35  1  0  0  0  0
M  END
>  <minimizedAffinity>
-6.37879

$$$$

 OpenBabel09092411003D

 39 41  0  0  0  0  0  0  0  0999 V2000
   -0.7706  -50.5002   21.3792 C   0  0  1  0  0  0  0  0  0  0  0  0
   -0.9913  -51.0987   22.7369 C   0  0  0  0  0  0  0  0  0  0  0  0
   -2.3534  -51.5910   23.1270 C   0  0  0  0  0  0  0  0  0  0  0  0
   -2.5741  -52.1895   24.4846 C   0  0  0  0  0  0  0  0  0  0  0  0
   -1.4327  -52.2957   25.4521 C   0  0  0  0  0  0  0  0  0  0  0  0
   -0.0705  -51.8034   25.0619 C   0  0  0  0  0  0  0  0  0  0  0  0
    0.1501  -51.2049   23.7042 C   0  0  0  0  0  0  0  0  0  0  0  0
    1.0709  -51.9096   26.0293 O   0  0  0  0  0  0  0  0  0  0  0  0
    0.8501  -52.5081   27.3868 C   0  0  0  0  0  0  0  0  0  0  0  0
   -0.5120  -53.0005   27.7770 C   0  0  0  0  0  0  0  0  0  0  0  0
   -1.6534  -52.8943   26.8096 O   0  0  0  0  0  0  0  0  0  0  0  0
   -1.2041  -47.9600   21.7097 C   0  0  0  0  0  0  0  0  0  0  0  0
   -0.3137  -49.0771   21.2522 C   0  0  0  0  0  0  0  0  0  0  0  0
   -1.0067  -51.3248   20.1487 N   0  0  0  0  0  0  0  0  0  0  0  0
    0.1153  -51.5708   19.1840 C   0  0  0  0  0  0  0  0  0  0  0  0
    0.1820  -50.8002   17.8989 N   0  0  0  0  0  0  0  0  0  0  0  0
    1.3040  -51.0463   16.9342 C   0  0  0  0  0  0  0  0  0  0  0  0
    2.3593  -52.0630   17.2547 C   0  0  0  0  0  0  0  0  0  0  0  0
    2.2925  -52.8336   18.5399 C   0  0  0  0  0  0  0  0  0  0  0  0
    1.1706  -52.5875   19.5045 C   0  0  0  0  0  0  0  0  0  0  0  0
    1.1038  -53.3581   20.7897 Cl  0  0  0  0  0  0  0  0  0  0  0  0
    3.4813  -52.3090   16.2901 C   0  0  0  0  0  0  0  0  0  0  0  0
    4.6032  -52.5551   15.3254 N   0  0  0  0  0  0  0  0  0  0  0  0
   -1.5665  -50.2745   20.7005 H   0  0  0  0  0  0  0  0  0  0  0  0
   -3.1387  -51.5179   22.4614 H   0  0  0  0  0  0  0  0  0  0  0  0
   -3.5112  -52.5282   24.7530 H   0  0  0  0  0  0  0  0  0  0  0  0
    1.0872  -50.8662   23.4357 H   0  0  0  0  0  0  0  0  0  0  0  0
    1.1252  -51.7613   28.1020 H   0  0  0  0  0  0  0  0  0  0  0  0
    1.4364  -53.4027   27.3594 H   0  0  0  0  0  0  0  0  0  0  0  0
   -0.7979  -52.4565   28.6529 H   0  0  0  0  0  0  0  0  0  0  0  0
   -0.3723  -54.0566   27.8776 H   0  0  0  0  0  0  0  0  0  0  0  0
   -0.7154  -47.0230   21.5423 H   0  0  0  0  0  0  0  0  0  0  0  0
   -1.4105  -48.0731   22.7535 H   0  0  0  0  0  0  0  0  0  0  0  0
   -2.1215  -47.9871   21.1597 H   0  0  0  0  0  0  0  0  0  0  0  0
    0.5966  -48.9941   21.8084 H   0  0  0  0  0  0  0  0  0  0  0  0
   -0.2585  -48.9300   20.1938 H   0  0  0  0  0  0  0  0  0  0  0  0
   -1.8981  -51.7046   19.9742 H   0  0  0  0  0  0  0  0  0  0  0  0
    1.3499  -50.5161   16.0500 H   0  0  0  0  0  0  0  0  0  0  0  0
    3.0185  -53.5331   18.7604 H   0  0  0  0  0  0  0  0  0  0  0  0
  1 13  1  0  0  0  0
  1 14  1  0  0  0  0
  1  2  1  0  0  0  0
  1 24  1  6  0  0  0
  2  3  2  0  0  0  0
  3  4  1  0  0  0  0
  3 25  1  0  0  0  0
  4  5  2  0  0  0  0
  4 26  1  0  0  0  0
  5  6  1  0  0  0  0
  6  7  2  0  0  0  0
  6  8  1  0  0  0  0
  7  2  1  0  0  0  0
  7 27  1  0  0  0  0
  8  9  1  0  0  0  0
  9 10  1  0  0  0  0
  9 28  1  0  0  0  0
  9 29  1  0  0  0  0
 10 11  1  0  0  0  0
 10 30  1  0  0  0  0
 10 31  1  0  0  0  0
 11  5  1  0  0  0  0
 12 13  1  0  0  0  0
 12 32  1  0  0  0  0
 12 33  1  0  0  0  0
 12 34  1  0  0  0  0
 13 35  1  0  0  0  0
 13 36  1  0  0  0  0
 14 15  1  0  0  0  0
 14 37  1  0  0  0  0
 15 16  2  0  0  0  0
 16 17  1  0  0  0  0
 17 18  2  0  0  0  0
 17 38  1  0  0  0  0
 18 22  1  0  0  0  0
 18 19  1  0  0  0  0
 19 20  2  0  0  0  0
 19 39  1  0  0  0  0
 20 21  1  0  0  0  0
 20 15  1  0  0  0  0
 22 23  3  0  0  0  0
M  END
>  <minimizedAffinity>
-6.78499

$$$$

 OpenBabel09092411003D

 32 34  0  0  0  0  0  0  0  0999 V2000
   -0.8598  -51.5499   23.8130 C   0  0  0  0  0  0  0  0  0  0  0  0
    0.6189  -51.5491   24.0646 C   0  0  0  0  0  0  0  0  0  0  0  0
    1.1406  -51.5940   25.4702 C   0  0  0  0  0  0  0  0  0  0  0  0
    0.1835  -51.6397   26.6243 C   0  0  0  0  0  0  0  0  0  0  0  0
   -1.2953  -51.6405   26.3727 C   0  0  0  0  0  0  0  0  0  0  0  0
   -1.8169  -51.5956   24.9671 C   0  0  0  0  0  0  0  0  0  0  0  0
    0.7052  -51.6845   28.0300 O   0  0  0  0  0  0  0  0  0  0  0  0
    2.1839  -51.6837   28.2815 C   0  0  0  0  0  0  0  0  0  0  0  0
    3.1410  -51.6380   27.1274 C   0  0  0  0  0  0  0  0  0  0  0  0
    2.6193  -51.5931   25.7218 O   0  0  0  0  0  0  0  0  0  0  0  0
   -1.3816  -51.5050   22.4073 N   0  0  0  0  0  0  0  0  0  0  0  0
    1.4186  -52.1600   18.9462 C   0  0  0  0  0  0  0  0  0  0  0  0
    1.3333  -53.1777   20.0448 C   0  0  0  0  0  0  0  0  0  0  0  0
    0.3999  -52.9594   21.1986 C   0  0  0  0  0  0  0  0  0  0  0  0
   -0.4482  -51.7233   21.2536 C   0  0  0  0  0  0  0  0  0  0  0  0
   -0.3628  -50.7057   20.1550 C   0  0  0  0  0  0  0  0  0  0  0  0
    0.5706  -50.9240   19.0013 C   0  0  0  0  0  0  0  0  0  0  0  0
    0.6559  -49.9063   17.9026 Cl  0  0  0  0  0  0  0  0  0  0  0  0
    3.2854  -52.5966   16.6387 N   0  0  0  0  0  0  0  0  0  0  0  0
    2.3520  -52.3783   17.7924 C   0  0  0  0  0  0  0  0  0  0  0  0
   -3.2957  -51.5964   24.7155 C   0  0  0  0  0  0  0  0  0  0  0  0
   -4.7744  -51.5972   24.4639 N   0  0  0  0  0  0  0  0  0  0  0  0
    1.2774  -51.5177   23.2706 H   0  0  0  0  0  0  0  0  0  0  0  0
   -1.9538  -51.6719   27.1667 H   0  0  0  0  0  0  0  0  0  0  0  0
    2.4043  -52.5753   28.8304 H   0  0  0  0  0  0  0  0  0  0  0  0
    2.3489  -50.7487   28.7750 H   0  0  0  0  0  0  0  0  0  0  0  0
    3.7556  -52.5108   27.2010 H   0  0  0  0  0  0  0  0  0  0  0  0
    3.6199  -50.6881   27.2425 H   0  0  0  0  0  0  0  0  0  0  0  0
   -2.3366  -51.3323   22.2420 H   0  0  0  0  0  0  0  0  0  0  0  0
    1.9168  -54.0281   20.0069 H   0  0  0  0  0  0  0  0  0  0  0  0
    0.3412  -53.6595   21.9545 H   0  0  0  0  0  0  0  0  0  0  0  0
   -0.9463  -49.8553   20.1929 H   0  0  0  0  0  0  0  0  0  0  0  0
  1  2  2  0  0  0  0
  2  3  1  0  0  0  0
  2 23  1  0  0  0  0
  3  4  2  0  0  0  0
  4  5  1  0  0  0  0
  4  7  1  0  0  0  0
  5  6  2  0  0  0  0
  5 24  1  0  0  0  0
  6 21  1  0  0  0  0
  6  1  1  0  0  0  0
  7  8  1  0  0  0  0
  8  9  1  0  0  0  0
  8 25  1  0  0  0  0
  8 26  1  0  0  0  0
  9 10  1  0  0  0  0
  9 27  1  0  0  0  0
  9 28  1  0  0  0  0
 10  3  1  0  0  0  0
 11  1  1  0  0  0  0
 11 29  1  0  0  0  0
 12 13  2  0  0  0  0
 13 14  1  0  0  0  0
 13 30  1  0  0  0  0
 14 15  2  0  0  0  0
 14 31  1  0  0  0  0
 15 11  1  0  0  0  0
 15 16  1  0  0  0  0
 16 17  2  0  0  0  0
 16 32  1  0  0  0  0
 17 18  1  0  0  0  0
 17 12  1  0  0  0  0
 19 20  3  0  0  0  0
 20 12  1  0  0  0  0
 21 22  3  0  0  0  0
M  END
>  <minimizedAffinity>
-6.93834

$$$$

 OpenBabel09092411003D

 39 41  0  0  0  0  0  0  0  0999 V2000
    0.9187  -51.2529   17.8723 C   0  0  1  0  0  0  0  0  0  0  0  0
    0.5042  -49.8252   18.0724 C   0  0  0  0  0  0  0  0  0  0  0  0
    0.3195  -49.5981   19.5436 C   0  0  2  0  0  0  0  0  0  0  0  0
   -0.0930  -48.3099   20.1919 N   0  3  0  0  0  0  0  0  0  0  0  0
    0.6198  -50.8854   20.2527 C   0  0  0  0  0  0  0  0  0  0  0  0
    0.6039  -51.2584   21.7054 C   0  0  0  0  0  0  0  0  0  0  0  0
    0.9583  -52.6541   22.1253 C   0  0  0  0  0  0  0  0  0  0  0  0
    1.3286  -53.6768   21.0924 C   0  0  0  0  0  0  0  0  0  0  0  0
    1.3445  -53.3038   19.6396 C   0  0  0  0  0  0  0  0  0  0  0  0
    0.9901  -51.9081   19.2198 C   0  0  0  0  0  0  0  0  0  0  0  0
    2.6252  -52.2342   16.1767 C   0  0  0  0  0  0  0  0  0  0  0  0
    1.2105  -51.9100   16.5559 O   0  0  0  0  0  0  0  0  0  0  0  0
    0.9424  -53.0272   23.5781 N   0  0  0  0  0  0  0  0  0  0  0  0
    0.0127  -52.3247   24.5227 C   0  0  0  0  0  0  0  0  0  0  0  0
   -1.4532  -52.6425   24.5073 C   0  0  0  0  0  0  0  0  0  0  0  0
   -2.3829  -51.9400   25.4518 C   0  0  0  0  0  0  0  0  0  0  0  0
   -1.8466  -50.9197   26.4118 C   0  0  0  0  0  0  0  0  0  0  0  0
   -0.3808  -50.6019   26.4272 C   0  0  0  0  0  0  0  0  0  0  0  0
    0.5489  -51.3044   25.4826 C   0  0  0  0  0  0  0  0  0  0  0  0
    2.0148  -50.9866   25.4981 Cl  0  0  0  0  0  0  0  0  0  0  0  0
   -2.7763  -50.2172   27.3564 C   0  0  0  0  0  0  0  0  0  0  0  0
   -3.7060  -49.5147   28.3010 N   0  0  0  0  0  0  0  0  0  0  0  0
    1.1271  -51.7216   16.9332 H   0  0  0  0  0  0  0  0  0  0  0  0
   -0.4152  -49.6385   17.5579 H   0  0  0  0  0  0  0  0  0  0  0  0
    1.2506  -49.1636   17.6849 H   0  0  0  0  0  0  0  0  0  0  0  0
    0.0250  -48.6792   20.0059 H   0  0  0  0  0  0  0  0  0  0  0  0
    0.6773  -47.9514   20.7563 H   0  0  0  0  0  0  0  0  0  0  0  0
   -0.9040  -48.4739   20.7884 H   0  0  0  0  0  0  0  0  0  0  0  0
   -0.3328  -47.6284   19.4718 H   0  0  0  0  0  0  0  0  0  0  0  0
    0.3491  -50.5548   22.4160 H   0  0  0  0  0  0  0  0  0  0  0  0
    1.5724  -54.6371   21.3813 H   0  0  0  0  0  0  0  0  0  0  0  0
    1.5993  -54.0074   18.9289 H   0  0  0  0  0  0  0  0  0  0  0  0
    2.6389  -52.6957   15.2114 H   0  0  0  0  0  0  0  0  0  0  0  0
    3.0433  -52.9044   16.8985 H   0  0  0  0  0  0  0  0  0  0  0  0
    3.2025  -51.3337   16.1497 H   0  0  0  0  0  0  0  0  0  0  0  0
    1.5421  -53.7331   23.9116 H   0  0  0  0  0  0  0  0  0  0  0  0
   -1.8221  -53.3445   23.8469 H   0  0  0  0  0  0  0  0  0  0  0  0
   -3.3914  -52.1586   25.4412 H   0  0  0  0  0  0  0  0  0  0  0  0
   -0.0119  -49.8999   27.0877 H   0  0  0  0  0  0  0  0  0  0  0  0
  1 12  1  0  0  0  0
  1  2  1  0  0  0  0
  1 23  1  1  0  0  0
  2  3  1  0  0  0  0
  2 24  1  0  0  0  0
  2 25  1  0  0  0  0
  3  4  1  0  0  0  0
  3  5  1  0  0  0  0
  3 26  1  6  0  0  0
  4 27  1  0  0  0  0
  4 28  1  0  0  0  0
  4 29  1  0  0  0  0
  5  6  2  0  0  0  0
  6  7  1  0  0  0  0
  6 30  1  0  0  0  0
  7 13  1  0  0  0  0
  7  8  2  0  0  0  0
  8  9  1  0  0  0  0
  8 31  1  0  0  0  0
  9 10  2  0  0  0  0
  9 32  1  0  0  0  0
 10  1  1  0  0  0  0
 10  5  1  0  0  0  0
 11 12  1  0  0  0  0
 11 33  1  0  0  0  0
 11 34  1  0  0  0  0
 11 35  1  0  0  0  0
 13 14  1  0  0  0  0
 13 36  1  0  0  0  0
 14 15  2  0  0  0  0
 15 16  1  0  0  0  0
 15 37  1  0  0  0  0
 16 17  2  0  0  0  0
 16 38  1  0  0  0  0
 17 21  1  0  0  0  0
 17 18  1  0  0  0  0
 18 19  2  0  0  0  0
 18 39  1  0  0  0  0
 19 20  1  0  0  0  0
 19 14  1  0  0  0  0
 21 22  3  0  0  0  0
M  CHG  1   4   1
M  END
>  <minimizedAffinity>
-7.13874

$$$$

 OpenBabel09092411003D

 33 35  0  0  0  0  0  0  0  0999 V2000
   -0.7787  -51.1787   23.6350 C   0  0  0  0  0  0  0  0  0  0  0  0
    0.5825  -50.9207   24.2099 C   0  0  0  0  0  0  0  0  0  0  0  0
    0.9147  -51.3957   25.5934 C   0  0  0  0  0  0  0  0  0  0  0  0
   -0.1144  -52.1286   26.4020 C   0  0  0  0  0  0  0  0  0  0  0  0
   -1.4757  -52.3866   25.8270 C   0  0  0  0  0  0  0  0  0  0  0  0
   -1.8078  -51.9117   24.4435 C   0  0  0  0  0  0  0  0  0  0  0  0
   -3.1690  -52.1696   23.8686 Cl  0  0  0  0  0  0  0  0  0  0  0  0
    0.2177  -52.6036   27.7854 O   0  0  0  0  0  0  0  0  0  0  0  0
    1.5789  -52.3456   28.3603 C   0  0  0  0  0  0  0  0  0  0  0  0
    2.6080  -51.6127   27.5518 C   0  0  0  0  0  0  0  0  0  0  0  0
    2.2759  -51.1377   26.1683 C   0  0  2  0  0  0  0  0  0  0  0  0
    3.3049  -50.4047   25.3597 O   0  0  0  0  0  0  0  0  0  0  0  0
   -1.1109  -50.7037   22.2514 N   0  0  0  0  0  0  0  0  0  0  0  0
    1.4781  -51.9132   18.7752 C   0  0  0  0  0  0  0  0  0  0  0  0
    1.3113  -52.8387   19.9438 C   0  0  0  0  0  0  0  0  0  0  0  0
    0.4483  -52.4355   21.1026 C   0  0  0  0  0  0  0  0  0  0  0  0
   -0.2479  -51.1069   21.0927 C   0  0  0  0  0  0  0  0  0  0  0  0
   -0.0811  -50.1814   19.9241 N   0  0  0  0  0  0  0  0  0  0  0  0
    0.7819  -50.5846   18.7653 C   0  0  0  0  0  0  0  0  0  0  0  0
    3.2041  -52.7195   16.4577 N   0  0  0  0  0  0  0  0  0  0  0  0
    2.3411  -52.3163   17.6164 C   0  0  0  0  0  0  0  0  0  0  0  0
    1.2905  -50.4164   23.6536 H   0  0  0  0  0  0  0  0  0  0  0  0
   -2.1837  -52.8908   26.3833 H   0  0  0  0  0  0  0  0  0  0  0  0
    1.9981  -53.3000   28.6018 H   0  0  0  0  0  0  0  0  0  0  0  0
    1.3806  -51.6760   29.1710 H   0  0  0  0  0  0  0  0  0  0  0  0
    3.4510  -52.2652   27.4603 H   0  0  0  0  0  0  0  0  0  0  0  0
    2.7472  -50.7029   28.0974 H   0  0  0  0  0  0  0  0  0  0  0  0
    3.3410  -51.1484   26.2699 H   0  0  0  0  0  0  0  0  0  0  0  0
    2.8630  -49.8755   24.6774 H   0  0  0  0  0  0  0  0  0  0  0  0
   -1.8953  -50.1274   22.1039 H   0  0  0  0  0  0  0  0  0  0  0  0
    1.7902  -53.7528   19.9506 H   0  0  0  0  0  0  0  0  0  0  0  0
    0.3336  -53.0722   21.9066 H   0  0  0  0  0  0  0  0  0  0  0  0
    0.8966  -49.9479   17.9613 H   0  0  0  0  0  0  0  0  0  0  0  0
  1  2  2  0  0  0  0
  2  3  1  0  0  0  0
  2 22  1  0  0  0  0
  3  4  2  0  0  0  0
  4  5  1  0  0  0  0
  4  8  1  0  0  0  0
  5  6  2  0  0  0  0
  5 23  1  0  0  0  0
  6  7  1  0  0  0  0
  6  1  1  0  0  0  0
  8  9  1  0  0  0  0
  9 10  1  0  0  0  0
  9 24  1  0  0  0  0
  9 25  1  0  0  0  0
 10 11  1  0  0  0  0
 10 26  1  0  0  0  0
 10 27  1  0  0  0  0
 11 12  1  0  0  0  0
 11  3  1  0  0  0  0
 11 28  1  6  0  0  0
 12 29  1  0  0  0  0
 13  1  1  0  0  0  0
 13 30  1  0  0  0  0
 14 15  2  0  0  0  0
 15 16  1  0  0  0  0
 15 31  1  0  0  0  0
 16 17  2  0  0  0  0
 16 32  1  0  0  0  0
 17 13  1  0  0  0  0
 17 18  1  0  0  0  0
 18 19  2  0  0  0  0
 19 14  1  0  0  0  0
 19 33  1  0  0  0  0
 20 21  3  0  0  0  0
 21 14  1  0  0  0  0
M  END
>  <minimizedAffinity>
-6.96925

$$$$

 OpenBabel09092411003D

 33 35  0  0  0  0  0  0  0  0999 V2000
   -0.4267  -51.2886   23.4421 C   0  0  0  0  0  0  0  0  0  0  0  0
    0.8687  -51.0739   24.1672 C   0  0  0  0  0  0  0  0  0  0  0  0
    0.9989  -51.4782   25.6059 C   0  0  0  0  0  0  0  0  0  0  0  0
   -0.1663  -52.0972   26.3194 C   0  0  0  0  0  0  0  0  0  0  0  0
   -1.4617  -52.3120   25.5941 C   0  0  0  0  0  0  0  0  0  0  0  0
   -1.5919  -51.9077   24.1556 C   0  0  0  0  0  0  0  0  0  0  0  0
   -2.8873  -52.1225   23.4304 Cl  0  0  0  0  0  0  0  0  0  0  0  0
   -0.0362  -52.5015   27.7579 O   0  0  0  0  0  0  0  0  0  0  0  0
    1.2592  -52.2868   28.4831 C   0  0  0  0  0  0  0  0  0  0  0  0
    2.4244  -51.6677   27.7696 C   0  0  0  0  0  0  0  0  0  0  0  0
    2.2943  -51.2634   26.3310 C   0  0  2  0  0  0  0  0  0  0  0  0
    3.4595  -50.6443   25.6176 O   0  0  0  0  0  0  0  0  0  0  0  0
   -0.5569  -50.8843   22.0034 N   0  0  0  0  0  0  0  0  0  0  0  0
    1.1725  -51.6670   18.5183 C   0  0  0  0  0  0  0  0  0  0  0  0
    1.9696  -52.8893   18.8654 C   0  0  0  0  0  0  0  0  0  0  0  0
    1.9245  -53.4434   20.2587 N   0  0  0  0  0  0  0  0  0  0  0  0
    1.0824  -52.7750   21.3047 C   0  0  0  0  0  0  0  0  0  0  0  0
    0.2853  -51.5527   20.9574 C   0  0  0  0  0  0  0  0  0  0  0  0
    0.3304  -50.9987   19.5643 C   0  0  0  0  0  0  0  0  0  0  0  0
    1.2627  -50.5589   15.7318 N   0  0  0  0  0  0  0  0  0  0  0  0
    1.2176  -51.1130   17.1251 C   0  0  0  0  0  0  0  0  0  0  0  0
    1.6704  -50.6480   23.6763 H   0  0  0  0  0  0  0  0  0  0  0  0
   -2.2634  -52.7380   26.0849 H   0  0  0  0  0  0  0  0  0  0  0  0
    1.5828  -53.2465   28.8282 H   0  0  0  0  0  0  0  0  0  0  0  0
    1.0083  -51.5567   29.2240 H   0  0  0  0  0  0  0  0  0  0  0  0
    3.2279  -52.3725   27.8209 H   0  0  0  0  0  0  0  0  0  0  0  0
    2.5554  -50.7345   28.2764 H   0  0  0  0  0  0  0  0  0  0  0  0
    3.0030  -51.3143   25.5310 H   0  0  0  0  0  0  0  0  0  0  0  0
    3.7078  -49.8178   26.0605 H   0  0  0  0  0  0  0  0  0  0  0  0
   -1.1951  -50.1803   21.7457 H   0  0  0  0  0  0  0  0  0  0  0  0
    2.5490  -53.3491   18.1457 H   0  0  0  0  0  0  0  0  0  0  0  0
    1.0514  -53.1561   22.2633 H   0  0  0  0  0  0  0  0  0  0  0  0
   -0.2180  -50.1577   19.3254 H   0  0  0  0  0  0  0  0  0  0  0  0
  1  2  2  0  0  0  0
  2  3  1  0  0  0  0
  2 22  1  0  0  0  0
  3  4  2  0  0  0  0
  4  5  1  0  0  0  0
  4  8  1  0  0  0  0
  5  6  2  0  0  0  0
  5 23  1  0  0  0  0
  6  7  1  0  0  0  0
  6  1  1  0  0  0  0
  8  9  1  0  0  0  0
  9 10  1  0  0  0  0
  9 24  1  0  0  0  0
  9 25  1  0  0  0  0
 10 11  1  0  0  0  0
 10 26  1  0  0  0  0
 10 27  1  0  0  0  0
 11 12  1  0  0  0  0
 11  3  1  0  0  0  0
 11 28  1  6  0  0  0
 12 29  1  0  0  0  0
 13  1  1  0  0  0  0
 13 30  1  0  0  0  0
 14 15  2  0  0  0  0
 15 16  1  0  0  0  0
 15 31  1  0  0  0  0
 16 17  2  0  0  0  0
 17 18  1  0  0  0  0
 17 32  1  0  0  0  0
 18 13  1  0  0  0  0
 18 19  2  0  0  0  0
 19 14  1  0  0  0  0
 19 33  1  0  0  0  0
 20 21  3  0  0  0  0
 21 14  1  0  0  0  0
M  END
>  <minimizedAffinity>
-7.25083

$$$$

 OpenBabel09092411003D

 40 43  0  0  0  0  0  0  0  0999 V2000
    0.7612  -50.5297   17.9357 C   0  0  0  0  0  0  0  0  0  0  0  0
    1.3085  -51.9260   17.9105 C   0  0  0  0  0  0  0  0  0  0  0  0
    1.4277  -52.7080   19.1849 C   0  0  0  0  0  0  0  0  0  0  0  0
    0.9997  -52.0936   20.4847 C   0  0  0  0  0  0  0  0  0  0  0  0
    0.4524  -50.6972   20.5100 C   0  0  0  0  0  0  0  0  0  0  0  0
    0.3331  -49.9153   19.2354 C   0  0  0  0  0  0  0  0  0  0  0  0
    0.0244  -50.0829   21.8096 O   0  0  0  0  0  0  0  0  0  0  0  0
    0.1436  -50.8648   23.0842 C   0  0  0  0  0  0  0  0  0  0  0  0
    0.6909  -52.2612   23.0589 C   0  0  2  0  0  0  0  0  0  0  0  0
    0.9246  -53.2674   24.1465 C   0  0  0  0  0  0  0  0  0  0  0  0
    1.4971  -54.5036   23.5189 N   0  3  0  0  0  0  0  0  0  0  0  0
    1.6172  -54.2615   22.0435 C   0  0  0  0  0  0  0  0  0  0  0  0
    1.1189  -52.8755   21.7592 C   0  0  2  0  0  0  0  0  0  0  0  0
    0.6419  -49.7477   16.6612 N   0  0  0  0  0  0  0  0  0  0  0  0
   -2.3240  -51.0053   13.5193 C   0  0  0  0  0  0  0  0  0  0  0  0
   -2.7971  -50.3119   14.7624 C   0  0  0  0  0  0  0  0  0  0  0  0
   -1.8084  -49.8927   15.8098 C   0  0  0  0  0  0  0  0  0  0  0  0
   -0.3468  -50.1669   15.6139 C   0  0  0  0  0  0  0  0  0  0  0  0
    0.1262  -50.8603   14.3708 C   0  0  0  0  0  0  0  0  0  0  0  0
   -0.8625  -51.2795   13.3235 C   0  0  0  0  0  0  0  0  0  0  0  0
   -0.3894  -51.9730   12.0803 Cl  0  0  0  0  0  0  0  0  0  0  0  0
   -4.3014  -51.8437   11.4247 N   0  0  0  0  0  0  0  0  0  0  0  0
   -3.3128  -51.4245   12.4720 C   0  0  0  0  0  0  0  0  0  0  0  0
    1.6031  -52.3487   17.0163 H   0  0  0  0  0  0  0  0  0  0  0  0
    1.8042  -53.6687   19.1675 H   0  0  0  0  0  0  0  0  0  0  0  0
   -0.0435  -48.9546   19.2527 H   0  0  0  0  0  0  0  0  0  0  0  0
   -0.8395  -50.9258   23.5023 H   0  0  0  0  0  0  0  0  0  0  0  0
    0.8807  -50.3217   23.6380 H   0  0  0  0  0  0  0  0  0  0  0  0
    0.3003  -51.4960   23.6967 H   0  0  0  0  0  0  0  0  0  0  0  0
   -0.0009  -53.5009   24.6301 H   0  0  0  0  0  0  0  0  0  0  0  0
    1.6001  -52.8746   24.8775 H   0  0  0  0  0  0  0  0  0  0  0  0
    0.8791  -55.2968   23.6903 H   0  0  0  0  0  0  0  0  0  0  0  0
    2.4116  -54.7132   23.9191 H   0  0  0  0  0  0  0  0  0  0  0  0
    1.0271  -54.9763   21.5090 H   0  0  0  0  0  0  0  0  0  0  0  0
    2.6360  -54.3614   21.7321 H   0  0  0  0  0  0  0  0  0  0  0  0
    1.2859  -52.9106   20.7029 H   0  0  0  0  0  0  0  0  0  0  0  0
    1.2125  -48.9594   16.5121 H   0  0  0  0  0  0  0  0  0  0  0  0
   -3.8027  -50.1232   14.8971 H   0  0  0  0  0  0  0  0  0  0  0  0
   -2.1338  -49.4157   16.6651 H   0  0  0  0  0  0  0  0  0  0  0  0
    1.1318  -51.0490   14.2360 H   0  0  0  0  0  0  0  0  0  0  0  0
  1  2  2  0  0  0  0
  2  3  1  0  0  0  0
  2 24  1  0  0  0  0
  3  4  2  0  0  0  0
  3 25  1  0  0  0  0
  4  5  1  0  0  0  0
  5  6  2  0  0  0  0
  5  7  1  0  0  0  0
  6  1  1  0  0  0  0
  6 26  1  0  0  0  0
  7  8  1  0  0  0  0
  8 27  1  0  0  0  0
  8 28  1  0  0  0  0
  9  8  1  0  0  0  0
  9 10  1  0  0  0  0
  9 29  1  6  0  0  0
 10 11  1  0  0  0  0
 10 30  1  0  0  0  0
 10 31  1  0  0  0  0
 11 12  1  0  0  0  0
 11 32  1  0  0  0  0
 11 33  1  0  0  0  0
 12 34  1  0  0  0  0
 12 35  1  0  0  0  0
 13 12  1  0  0  0  0
 13  9  1  0  0  0  0
 13  4  1  0  0  0  0
 13 36  1  6  0  0  0
 14  1  1  0  0  0  0
 14 37  1  0  0  0  0
 15 16  2  0  0  0  0
 16 17  1  0  0  0  0
 16 38  1  0  0  0  0
 17 18  2  0  0  0  0
 17 39  1  0  0  0  0
 18 14  1  0  0  0  0
 18 19  1  0  0  0  0
 19 20  2  0  0  0  0
 19 40  1  0  0  0  0
 20 21  1  0  0  0  0
 20 15  1  0  0  0  0
 22 23  3  0  0  0  0
 23 15  1  0  0  0  0
M  CHG  1  11   1
M  END
>  <minimizedAffinity>
-7.50892

$$$$

 OpenBabel09092411003D

 33 35  0  0  0  0  0  0  0  0999 V2000
    0.2936  -51.2093   25.4068 C   0  0  0  0  0  0  0  0  0  0  0  0
   -0.6079  -50.2397   26.1120 C   0  0  0  0  0  0  0  0  0  0  0  0
   -2.0359  -50.0912   25.6777 C   0  0  0  0  0  0  0  0  0  0  0  0
   -2.5625  -50.9124   24.5382 C   0  0  0  0  0  0  0  0  0  0  0  0
   -1.6611  -51.8819   23.8330 C   0  0  0  0  0  0  0  0  0  0  0  0
   -0.2330  -52.0304   24.2674 C   0  0  0  0  0  0  0  0  0  0  0  0
   -4.0044  -50.5522   24.3348 O   0  0  0  0  0  0  0  0  0  0  0  0
   -4.3689  -49.5085   25.3486 C   0  0  0  0  0  0  0  0  0  0  0  0
   -3.1523  -49.2236   26.1786 C   0  0  2  0  0  0  0  0  0  0  0  0
   -3.0671  -48.2432   27.3106 N   0  3  0  0  0  0  0  0  0  0  0  0
    3.1497  -51.5062   26.2756 N   0  0  0  0  0  0  0  0  0  0  0  0
    1.7217  -51.3577   25.8412 C   0  0  0  0  0  0  0  0  0  0  0  0
    0.6685  -53.0000   23.5622 N   0  0  0  0  0  0  0  0  0  0  0  0
    1.0098  -52.7915   22.1165 C   0  0  0  0  0  0  0  0  0  0  0  0
    1.6852  -53.8830   21.3403 C   0  0  0  0  0  0  0  0  0  0  0  0
    2.0265  -53.6745   19.8946 N   0  0  0  0  0  0  0  0  0  0  0  0
    1.6924  -52.3745   19.2250 C   0  0  0  0  0  0  0  0  0  0  0  0
    1.0170  -51.2830   20.0012 C   0  0  0  0  0  0  0  0  0  0  0  0
    0.6828  -49.9829   19.3317 Cl  0  0  0  0  0  0  0  0  0  0  0  0
    0.6757  -51.4915   21.4469 C   0  0  0  0  0  0  0  0  0  0  0  0
    2.0337  -52.1659   17.7793 C   0  0  0  0  0  0  0  0  0  0  0  0
    2.3749  -51.9572   16.3337 N   0  0  0  0  0  0  0  0  0  0  0  0
   -0.2456  -49.6748   26.8960 H   0  0  0  0  0  0  0  0  0  0  0  0
   -2.0234  -52.4468   23.0490 H   0  0  0  0  0  0  0  0  0  0  0  0
   -5.1586  -49.8697   25.9738 H   0  0  0  0  0  0  0  0  0  0  0  0
   -4.7030  -48.6169   24.8605 H   0  0  0  0  0  0  0  0  0  0  0  0
   -3.0916  -48.5246   26.9864 H   0  0  0  0  0  0  0  0  0  0  0  0
   -2.8973  -47.3086   26.9389 H   0  0  0  0  0  0  0  0  0  0  0  0
   -2.3018  -48.5064   27.9315 H   0  0  0  0  0  0  0  0  0  0  0  0
   -3.9442  -48.2479   27.8312 H   0  0  0  0  0  0  0  0  0  0  0  0
    1.0362  -53.7732   24.0482 H   0  0  0  0  0  0  0  0  0  0  0  0
    1.9151  -54.7774   21.8009 H   0  0  0  0  0  0  0  0  0  0  0  0
    0.2110  -50.7405   21.9809 H   0  0  0  0  0  0  0  0  0  0  0  0
  1  2  2  0  0  0  0
  2  3  1  0  0  0  0
  2 23  1  0  0  0  0
  3  4  2  0  0  0  0
  4  5  1  0  0  0  0
  4  7  1  0  0  0  0
  5  6  2  0  0  0  0
  5 24  1  0  0  0  0
  6 13  1  0  0  0  0
  6  1  1  0  0  0  0
  7  8  1  0  0  0  0
  8  9  1  0  0  0  0
  8 25  1  0  0  0  0
  8 26  1  0  0  0  0
  9 10  1  0  0  0  0
  9  3  1  0  0  0  0
  9 27  1  1  0  0  0
 10 28  1  0  0  0  0
 10 29  1  0  0  0  0
 10 30  1  0  0  0  0
 11 12  3  0  0  0  0
 12  1  1  0  0  0  0
 13 14  1  0  0  0  0
 13 31  1  0  0  0  0
 14 15  2  0  0  0  0
 15 16  1  0  0  0  0
 15 32  1  0  0  0  0
 16 17  2  0  0  0  0
 17 21  1  0  0  0  0
 17 18  1  0  0  0  0
 18 19  1  0  0  0  0
 18 20  2  0  0  0  0
 20 14  1  0  0  0  0
 20 33  1  0  0  0  0
 21 22  3  0  0  0  0
M  CHG  1  10   1
M  END
>  <minimizedAffinity>
-6.77947

$$$$

 OpenBabel09092411003D

 35 37  0  0  0  0  0  0  0  0999 V2000
   -0.1478  -51.9087   23.8372 C   0  0  0  0  0  0  0  0  0  0  0  0
    1.1845  -51.2259   23.9308 C   0  0  0  0  0  0  0  0  0  0  0  0
    1.8792  -51.1154   25.2556 C   0  0  0  0  0  0  0  0  0  0  0  0
    1.2415  -51.6877   26.4868 C   0  0  0  0  0  0  0  0  0  0  0  0
   -0.0907  -52.3705   26.3932 C   0  0  0  0  0  0  0  0  0  0  0  0
   -0.7854  -52.4810   25.0684 C   0  0  0  0  0  0  0  0  0  0  0  0
   -0.4711  -52.8350   27.7678 C   0  0  2  0  0  0  0  0  0  0  0  0
   -1.7280  -53.5667   28.1348 N   0  3  0  0  0  0  0  0  0  0  0  0
    0.6261  -52.4393   28.7110 C   0  0  0  0  0  0  0  0  0  0  0  0
    1.6846  -51.7302   27.9193 C   0  0  0  0  0  0  0  0  0  0  0  0
   -0.8425  -52.0193   22.5123 N   0  0  0  0  0  0  0  0  0  0  0  0
    1.5682  -52.2315   18.7184 C   0  0  0  0  0  0  0  0  0  0  0  0
    1.6731  -53.3285   19.7360 C   0  0  0  0  0  0  0  0  0  0  0  0
    0.8696  -53.2578   21.0007 C   0  0  0  0  0  0  0  0  0  0  0  0
   -0.0389  -52.0900   21.2477 C   0  0  0  0  0  0  0  0  0  0  0  0
   -0.1438  -50.9930   20.2300 C   0  0  0  0  0  0  0  0  0  0  0  0
    0.6597  -51.0638   18.9654 C   0  0  0  0  0  0  0  0  0  0  0  0
    0.5548  -49.9668   17.9478 Cl  0  0  0  0  0  0  0  0  0  0  0  0
    3.1753  -52.3730   16.1891 N   0  0  0  0  0  0  0  0  0  0  0  0
    2.3717  -52.3023   17.4538 C   0  0  0  0  0  0  0  0  0  0  0  0
    1.6232  -50.8322   23.0837 H   0  0  0  0  0  0  0  0  0  0  0  0
    2.7958  -50.6457   25.3200 H   0  0  0  0  0  0  0  0  0  0  0  0
   -1.7020  -52.9508   25.0040 H   0  0  0  0  0  0  0  0  0  0  0  0
   -1.3677  -53.3570   28.0295 H   0  0  0  0  0  0  0  0  0  0  0  0
   -2.1494  -53.1289   28.9540 H   0  0  0  0  0  0  0  0  0  0  0  0
   -1.5058  -54.5396   28.3457 H   0  0  0  0  0  0  0  0  0  0  0  0
   -2.3835  -53.5292   27.3542 H   0  0  0  0  0  0  0  0  0  0  0  0
    1.0406  -53.3113   29.1721 H   0  0  0  0  0  0  0  0  0  0  0  0
    0.2439  -51.7987   29.4780 H   0  0  0  0  0  0  0  0  0  0  0  0
    2.6116  -52.2589   27.9971 H   0  0  0  0  0  0  0  0  0  0  0  0
    1.8270  -50.7381   28.2940 H   0  0  0  0  0  0  0  0  0  0  0  0
   -1.8259  -52.0455   22.4728 H   0  0  0  0  0  0  0  0  0  0  0  0
    2.2981  -54.1319   19.5660 H   0  0  0  0  0  0  0  0  0  0  0  0
    0.9418  -54.0125   21.7008 H   0  0  0  0  0  0  0  0  0  0  0  0
   -0.7688  -50.1896   20.3999 H   0  0  0  0  0  0  0  0  0  0  0  0
  1  2  2  0  0  0  0
  2  3  1  0  0  0  0
  2 21  1  0  0  0  0
  3  4  2  0  0  0  0
  3 22  1  0  0  0  0
  4  5  1  0  0  0  0
  5  6  2  0  0  0  0
  5  7  1  0  0  0  0
  6  1  1  0  0  0  0
  6 23  1  0  0  0  0
  7  8  1  0  0  0  0
  7  9  1  0  0  0  0
  7 24  1  6  0  0  0
  8 25  1  0  0  0  0
  8 26  1  0  0  0  0
  8 27  1  0  0  0  0
  9 10  1  0  0  0  0
  9 28  1  0  0  0  0
  9 29  1  0  0  0  0
 10  4  1  0  0  0  0
 10 30  1  0  0  0  0
 10 31  1  0  0  0  0
 11  1  1  0  0  0  0
 11 32  1  0  0  0  0
 12 13  2  0  0  0  0
 13 14  1  0  0  0  0
 13 33  1  0  0  0  0
 14 15  2  0  0  0  0
 14 34  1  0  0  0  0
 15 11  1  0  0  0  0
 15 16  1  0  0  0  0
 16 17  2  0  0  0  0
 16 35  1  0  0  0  0
 17 18  1  0  0  0  0
 17 12  1  0  0  0  0
 19 20  3  0  0  0  0
 20 12  1  0  0  0  0
M  CHG  1   8   1
M  END
>  <minimizedAffinity>
-7.73111

$$$$

 OpenBabel09092411003D

 39 41  0  0  0  0  0  0  0  0999 V2000
    2.1431  -52.8203   16.5758 N   0  0  0  0  0  0  0  0  0  0  0  0
    1.4122  -52.0914   17.6642 C   0  0  0  0  0  0  0  0  0  0  0  0
    1.4989  -50.5967   17.7550 O   0  0  0  0  0  0  0  0  0  0  0  0
    0.5946  -52.8572   18.6616 N   0  0  0  0  0  0  0  0  0  0  0  0
    4.5960  -50.5228   13.5833 C   0  0  0  0  0  0  0  0  0  0  0  0
    5.2724  -51.4219   14.5754 C   0  0  0  0  0  0  0  0  0  0  0  0
    4.4548  -52.1877   15.5729 C   0  0  0  0  0  0  0  0  0  0  0  0
    2.9607  -52.0545   15.5783 C   0  0  0  0  0  0  0  0  0  0  0  0
    2.2843  -51.1554   14.5863 C   0  0  0  0  0  0  0  0  0  0  0  0
    3.1020  -50.3896   13.5888 C   0  0  0  0  0  0  0  0  0  0  0  0
    2.4256  -49.4905   12.5967 Cl  0  0  0  0  0  0  0  0  0  0  0  0
    6.2313  -48.9912   11.5883 N   0  0  0  0  0  0  0  0  0  0  0  0
    5.4136  -49.7570   12.5859 C   0  0  0  0  0  0  0  0  0  0  0  0
   -0.1363  -52.1283   19.7500 C   0  0  2  0  0  0  0  0  0  0  0  0
    0.2168  -52.3760   21.1867 C   0  0  0  0  0  0  0  0  0  0  0  0
    0.9686  -53.6157   21.5712 C   0  0  0  0  0  0  0  0  0  0  0  0
    1.3218  -53.8633   23.0078 C   0  0  0  0  0  0  0  0  0  0  0  0
    0.9231  -52.8713   24.0600 C   0  0  0  0  0  0  0  0  0  0  0  0
    0.1712  -51.6316   23.6755 C   0  0  0  0  0  0  0  0  0  0  0  0
   -0.1819  -51.3839   22.2387 C   0  0  0  0  0  0  0  0  0  0  0  0
   -0.2275  -50.6396   24.7275 O   0  0  0  0  0  0  0  0  0  0  0  0
    0.1256  -50.8873   26.1641 C   0  0  0  0  0  0  0  0  0  0  0  0
    0.8775  -52.1270   26.5487 C   0  0  0  0  0  0  0  0  0  0  0  0
    1.2762  -53.1190   25.4966 O   0  0  0  0  0  0  0  0  0  0  0  0
   -1.2203  -51.1518   19.4017 C   0  0  0  0  0  0  0  0  0  0  0  0
   -2.3043  -50.1753   19.0534 N   0  0  0  0  0  0  0  0  0  0  0  0
    2.0862  -53.8013   16.5162 H   0  0  0  0  0  0  0  0  0  0  0  0
    0.5376  -53.8382   18.6019 H   0  0  0  0  0  0  0  0  0  0  0  0
    6.3003  -51.5136   14.5716 H   0  0  0  0  0  0  0  0  0  0  0  0
    4.9202  -52.8062   16.2555 H   0  0  0  0  0  0  0  0  0  0  0  0
    1.2564  -51.0637   14.5901 H   0  0  0  0  0  0  0  0  0  0  0  0
    0.5592  -51.3700   20.0434 H   0  0  0  0  0  0  0  0  0  0  0  0
    1.2428  -54.2983   20.8474 H   0  0  0  0  0  0  0  0  0  0  0  0
    1.8391  -54.7162   23.2723 H   0  0  0  0  0  0  0  0  0  0  0  0
   -0.6991  -50.5310   21.9741 H   0  0  0  0  0  0  0  0  0  0  0  0
   -0.7945  -50.9022   26.7102 H   0  0  0  0  0  0  0  0  0  0  0  0
    0.8169  -50.1015   26.3864 H   0  0  0  0  0  0  0  0  0  0  0  0
    0.2671  -52.6524   27.2532 H   0  0  0  0  0  0  0  0  0  0  0  0
    1.8154  -51.7477   26.8971 H   0  0  0  0  0  0  0  0  0  0  0  0
  1  2  1  0  0  0  0
  1 27  1  0  0  0  0
  2  3  2  0  0  0  0
  2  4  1  0  0  0  0
  4 14  1  0  0  0  0
  4 28  1  0  0  0  0
  5  6  2  0  0  0  0
  6  7  1  0  0  0  0
  6 29  1  0  0  0  0
  7  8  2  0  0  0  0
  7 30  1  0  0  0  0
  8  1  1  0  0  0  0
  8  9  1  0  0  0  0
  9 10  2  0  0  0  0
  9 31  1  0  0  0  0
 10 11  1  0  0  0  0
 10  5  1  0  0  0  0
 12 13  3  0  0  0  0
 13  5  1  0  0  0  0
 14 25  1  0  0  0  0
 14 15  1  0  0  0  0
 14 32  1  6  0  0  0
 15 16  2  0  0  0  0
 16 17  1  0  0  0  0
 16 33  1  0  0  0  0
 17 18  2  0  0  0  0
 17 34  1  0  0  0  0
 18 19  1  0  0  0  0
 19 20  2  0  0  0  0
 19 21  1  0  0  0  0
 20 15  1  0  0  0  0
 20 35  1  0  0  0  0
 21 22  1  0  0  0  0
 22 23  1  0  0  0  0
 22 36  1  0  0  0  0
 22 37  1  0  0  0  0
 23 24  1  0  0  0  0
 23 38  1  0  0  0  0
 23 39  1  0  0  0  0
 24 18  1  0  0  0  0
 25 26  3  0  0  0  0
M  END
>  <minimizedAffinity>
-7.15602

$$$$

 OpenBabel09092411003D

 38 39  0  0  0  0  0  0  0  0999 V2000
    0.8981  -53.2334   24.4141 N   0  0  0  0  0  0  0  0  0  0  0  0
   -2.2321  -51.5709   27.1868 C   0  0  0  0  0  0  0  0  0  0  0  0
   -0.8100  -51.6927   27.6481 N   0  0  0  0  0  0  0  0  0  0  0  0
    0.2334  -52.2469   26.7238 C   0  0  0  0  0  0  0  0  0  0  0  0
   -0.1453  -52.6793   25.3383 C   0  0  0  0  0  0  0  0  0  0  0  0
   -1.5674  -52.5575   24.8771 C   0  0  0  0  0  0  0  0  0  0  0  0
   -2.6108  -52.0033   25.8014 C   0  0  0  0  0  0  0  0  0  0  0  0
   -4.0330  -51.8815   25.3400 Cl  0  0  0  0  0  0  0  0  0  0  0  0
   -3.2755  -51.0168   28.1111 N   0  0  0  0  0  0  0  0  0  0  0  0
   -3.0202  -48.6815   27.0015 C   0  0  0  0  0  0  0  0  0  0  0  0
   -3.6457  -49.5649   28.0399 C   0  0  0  0  0  0  0  0  0  0  0  0
    0.9222  -52.8157   22.9737 C   0  0  0  0  0  0  0  0  0  0  0  0
    1.1335  -53.8406   21.8989 C   0  0  0  0  0  0  0  0  0  0  0  0
    1.1576  -53.4229   20.4585 C   0  0  0  0  0  0  0  0  0  0  0  0
    0.9705  -51.9803   20.0927 C   0  0  0  0  0  0  0  0  0  0  0  0
    0.7593  -50.9554   21.1674 C   0  0  0  0  0  0  0  0  0  0  0  0
    0.7351  -51.3731   22.6079 C   0  0  0  0  0  0  0  0  0  0  0  0
    0.9947  -51.5626   18.6522 C   0  0  1  0  0  0  0  0  0  0  0  0
   -0.0311  -50.5989   18.1335 C   0  0  0  0  0  0  0  0  0  0  0  0
    2.0446  -52.1085   17.7305 C   0  0  0  0  0  0  0  0  0  0  0  0
    3.0946  -52.6545   16.8089 N   0  0  0  0  0  0  0  0  0  0  0  0
    1.5671  -53.8712   24.7529 H   0  0  0  0  0  0  0  0  0  0  0  0
    1.2118  -52.3307   27.0411 H   0  0  0  0  0  0  0  0  0  0  0  0
   -1.8280  -52.8550   23.9239 H   0  0  0  0  0  0  0  0  0  0  0  0
   -3.7173  -51.6060   28.7644 H   0  0  0  0  0  0  0  0  0  0  0  0
   -3.4018  -47.6870   27.1025 H   0  0  0  0  0  0  0  0  0  0  0  0
   -3.2540  -49.0560   26.0268 H   0  0  0  0  0  0  0  0  0  0  0  0
   -1.9585  -48.6714   27.1344 H   0  0  0  0  0  0  0  0  0  0  0  0
   -4.7035  -49.5231   27.8844 H   0  0  0  0  0  0  0  0  0  0  0  0
   -3.2677  -49.1693   28.9594 H   0  0  0  0  0  0  0  0  0  0  0  0
    1.2623  -54.8331   22.1505 H   0  0  0  0  0  0  0  0  0  0  0  0
    1.3029  -54.1280   19.7191 H   0  0  0  0  0  0  0  0  0  0  0  0
    0.6306  -49.9629   20.9157 H   0  0  0  0  0  0  0  0  0  0  0  0
    0.5897  -50.6679   23.3473 H   0  0  0  0  0  0  0  0  0  0  0  0
    1.5317  -52.4057   18.2706 H   0  0  0  0  0  0  0  0  0  0  0  0
   -0.2828  -49.8981   18.9019 H   0  0  0  0  0  0  0  0  0  0  0  0
   -0.9085  -51.1360   17.8393 H   0  0  0  0  0  0  0  0  0  0  0  0
    0.3663  -50.0751   17.2893 H   0  0  0  0  0  0  0  0  0  0  0  0
  1 12  1  0  0  0  0
  1 22  1  0  0  0  0
  2  3  2  0  0  0  0
  3  4  1  0  0  0  0
  4  5  2  0  0  0  0
  4 23  1  0  0  0  0
  5  1  1  0  0  0  0
  5  6  1  0  0  0  0
  6  7  2  0  0  0  0
  6 24  1  0  0  0  0
  7  8  1  0  0  0  0
  7  2  1  0  0  0  0
  9  2  1  0  0  0  0
  9 25  1  0  0  0  0
 10 11  1  0  0  0  0
 10 26  1  0  0  0  0
 10 27  1  0  0  0  0
 10 28  1  0  0  0  0
 11  9  1  0  0  0  0
 11 29  1  0  0  0  0
 11 30  1  0  0  0  0
 12 13  2  0  0  0  0
 13 14  1  0  0  0  0
 13 31  1  0  0  0  0
 14 15  2  0  0  0  0
 14 32  1  0  0  0  0
 15 18  1  0  0  0  0
 15 16  1  0  0  0  0
 16 17  2  0  0  0  0
 16 33  1  0  0  0  0
 17 12  1  0  0  0  0
 17 34  1  0  0  0  0
 18 19  1  0  0  0  0
 18 20  1  0  0  0  0
 18 35  1  6  0  0  0
 19 36  1  0  0  0  0
 19 37  1  0  0  0  0
 19 38  1  0  0  0  0
 20 21  3  0  0  0  0
M  END
>  <minimizedAffinity>
-6.71773

$$$$

 OpenBabel09092411003D

 40 42  0  0  0  0  0  0  0  0999 V2000
    0.3890  -52.5514   24.6145 C   0  0  0  0  0  0  0  0  0  0  0  0
    1.4073  -52.2140   25.6629 N   0  0  0  0  0  0  0  0  0  0  0  0
    1.0284  -51.3425   26.8234 C   0  0  0  0  0  0  0  0  0  0  0  0
   -0.3688  -50.8084   26.9355 N   0  0  0  0  0  0  0  0  0  0  0  0
   -1.3871  -51.1458   25.8871 C   0  0  0  0  0  0  0  0  0  0  0  0
   -1.0082  -52.0173   24.7266 C   0  0  0  0  0  0  0  0  0  0  0  0
   -2.0265  -52.3548   23.6781 O   0  0  0  0  0  0  0  0  0  0  0  0
   -3.4237  -51.8207   23.7902 C   0  0  0  0  0  0  0  0  0  0  0  0
   -3.8026  -50.9491   24.9508 C   0  0  0  0  0  0  0  0  0  0  0  0
   -2.7843  -50.6116   25.9992 N   0  0  0  0  0  0  0  0  0  0  0  0
   -3.1632  -49.7401   27.1597 C   0  0  0  0  0  0  0  0  0  0  0  0
   -3.0832  -48.2475   27.0343 C   0  0  0  0  0  0  0  0  0  0  0  0
   -3.6220  -50.3612   28.4458 C   0  0  0  0  0  0  0  0  0  0  0  0
    0.7679  -53.4230   23.4539 N   0  0  0  0  0  0  0  0  0  0  0  0
    0.7423  -50.7897   20.4849 C   0  0  0  0  0  0  0  0  0  0  0  0
    1.2916  -51.6213   19.3638 C   0  0  0  0  0  0  0  0  0  0  0  0
    1.6662  -53.0534   19.6060 C   0  0  0  0  0  0  0  0  0  0  0  0
    1.4917  -53.6540   20.9694 C   0  0  0  0  0  0  0  0  0  0  0  0
    0.9424  -52.8225   22.0905 C   0  0  0  0  0  0  0  0  0  0  0  0
    0.5678  -51.3903   21.8483 C   0  0  0  0  0  0  0  0  0  0  0  0
   -0.0070  -47.9256   20.0003 C   0  0  0  0  0  0  0  0  0  0  0  0
    0.3677  -49.3576   20.2426 C   0  0  0  0  0  0  0  0  0  0  0  0
    1.7290  -51.1103   27.5447 H   0  0  0  0  0  0  0  0  0  0  0  0
   -4.0772  -52.6676   23.8137 H   0  0  0  0  0  0  0  0  0  0  0  0
   -3.5030  -51.1613   22.9512 H   0  0  0  0  0  0  0  0  0  0  0  0
   -4.6121  -51.4371   25.4522 H   0  0  0  0  0  0  0  0  0  0  0  0
   -4.0062  -50.0039   24.4924 H   0  0  0  0  0  0  0  0  0  0  0  0
   -4.1286  -49.8643   26.7152 H   0  0  0  0  0  0  0  0  0  0  0  0
   -2.1534  -47.9050   27.4380 H   0  0  0  0  0  0  0  0  0  0  0  0
   -3.8923  -47.8004   27.5732 H   0  0  0  0  0  0  0  0  0  0  0  0
   -3.1469  -47.9724   26.0022 H   0  0  0  0  0  0  0  0  0  0  0  0
   -2.8106  -50.3783   29.1431 H   0  0  0  0  0  0  0  0  0  0  0  0
   -3.9540  -51.3613   28.2604 H   0  0  0  0  0  0  0  0  0  0  0  0
   -4.4287  -49.7870   28.8513 H   0  0  0  0  0  0  0  0  0  0  0  0
    0.9020  -54.3892   23.5871 H   0  0  0  0  0  0  0  0  0  0  0  0
    1.4118  -51.2081   18.4258 H   0  0  0  0  0  0  0  0  0  0  0  0
    2.0440  -53.6255   18.8346 H   0  0  0  0  0  0  0  0  0  0  0  0
    1.7496  -54.6393   21.1361 H   0  0  0  0  0  0  0  0  0  0  0  0
    0.1900  -50.8182   22.6197 H   0  0  0  0  0  0  0  0  0  0  0  0
   -0.2553  -46.9766   19.8397 H   0  0  0  0  0  0  0  0  0  0  0  0
  1  2  2  0  0  0  0
  2  3  1  0  0  0  0
  3  4  2  0  0  0  0
  3 23  1  0  0  0  0
  4  5  1  0  0  0  0
  5  6  2  0  0  0  0
  6  7  1  0  0  0  0
  6  1  1  0  0  0  0
  7  8  1  0  0  0  0
  8  9  1  0  0  0  0
  8 24  1  0  0  0  0
  8 25  1  0  0  0  0
  9 10  1  0  0  0  0
  9 26  1  0  0  0  0
  9 27  1  0  0  0  0
 10 11  1  0  0  0  0
 10  5  1  0  0  0  0
 11 12  1  0  0  0  0
 11 13  1  0  0  0  0
 11 28  1  0  0  0  0
 12 29  1  0  0  0  0
 12 30  1  0  0  0  0
 12 31  1  0  0  0  0
 13 32  1  0  0  0  0
 13 33  1  0  0  0  0
 13 34  1  0  0  0  0
 14  1  1  0  0  0  0
 14 35  1  0  0  0  0
 15 16  2  0  0  0  0
 16 17  1  0  0  0  0
 16 36  1  0  0  0  0
 17 18  2  0  0  0  0
 17 37  1  0  0  0  0
 18 19  1  0  0  0  0
 18 38  1  0  0  0  0
 19 14  1  0  0  0  0
 19 20  2  0  0  0  0
 20 15  1  0  0  0  0
 20 39  1  0  0  0  0
 21 22  3  0  0  0  0
 21 40  1  0  0  0  0
 22 15  1  0  0  0  0
M  END
>  <minimizedAffinity>
-6.81819

$$$$

 OpenBabel09092411003D

 37 38  0  0  0  0  0  0  0  0999 V2000
   -0.1579  -50.8695   23.7618 C   0  0  0  0  0  0  0  0  0  0  0  0
    0.9479  -50.9971   24.7672 C   0  0  0  0  0  0  0  0  0  0  0  0
    0.6730  -51.6033   26.1115 C   0  0  0  0  0  0  0  0  0  0  0  0
   -0.7076  -52.0817   26.4504 N   0  0  0  0  0  0  0  0  0  0  0  0
   -1.8134  -51.9541   25.4450 C   0  0  0  0  0  0  0  0  0  0  0  0
   -1.5386  -51.3480   24.1007 N   0  0  0  0  0  0  0  0  0  0  0  0
    1.7789  -51.7309   27.1170 C   0  0  0  0  0  0  0  0  0  0  0  0
    1.4661  -52.1267   28.5296 C   0  0  0  0  0  0  0  0  0  0  0  0
    3.1974  -51.4627   26.7098 C   0  0  0  0  0  0  0  0  0  0  0  0
    0.1169  -50.2634   22.4176 N   0  0  0  0  0  0  0  0  0  0  0  0
    1.0179  -51.4651   18.7441 C   0  0  0  0  0  0  0  0  0  0  0  0
    1.4734  -52.8694   19.0090 C   0  0  0  0  0  0  0  0  0  0  0  0
    1.4767  -53.4051   20.4101 C   0  0  0  0  0  0  0  0  0  0  0  0
    1.0246  -52.5365   21.5463 C   0  0  0  0  0  0  0  0  0  0  0  0
    0.5691  -51.1321   21.2814 C   0  0  0  0  0  0  0  0  0  0  0  0
    0.5658  -50.5964   19.8803 C   0  0  0  0  0  0  0  0  0  0  0  0
    1.0113  -50.3937   15.9420 C   0  0  0  0  0  0  0  0  0  0  0  0
    1.0146  -50.9294   17.3430 C   0  0  0  0  0  0  0  0  0  0  0  0
   -3.1941  -52.4326   25.7838 O   0  0  0  0  0  0  0  0  0  0  0  0
   -4.3921  -51.6801   25.2852 C   0  0  0  0  0  0  0  0  0  0  0  0
    1.8978  -50.6679   24.5341 H   0  0  0  0  0  0  0  0  0  0  0  0
    2.8218  -51.6395   27.3382 H   0  0  0  0  0  0  0  0  0  0  0  0
    0.4146  -52.2988   28.6273 H   0  0  0  0  0  0  0  0  0  0  0  0
    1.7623  -51.3419   29.1938 H   0  0  0  0  0  0  0  0  0  0  0  0
    1.9983  -53.0218   28.7754 H   0  0  0  0  0  0  0  0  0  0  0  0
    3.2329  -51.2453   25.6627 H   0  0  0  0  0  0  0  0  0  0  0  0
    3.7966  -52.3249   26.9156 H   0  0  0  0  0  0  0  0  0  0  0  0
    3.5746  -50.6265   27.2606 H   0  0  0  0  0  0  0  0  0  0  0  0
    0.0005  -49.2954   22.2810 H   0  0  0  0  0  0  0  0  0  0  0  0
    1.7845  -53.4671   18.2273 H   0  0  0  0  0  0  0  0  0  0  0  0
    1.7901  -54.3713   20.5923 H   0  0  0  0  0  0  0  0  0  0  0  0
    1.0269  -52.9051   22.5102 H   0  0  0  0  0  0  0  0  0  0  0  0
    0.2525  -49.6301   19.6981 H   0  0  0  0  0  0  0  0  0  0  0  0
    1.0091  -50.0387   15.0136 H   0  0  0  0  0  0  0  0  0  0  0  0
   -5.2840  -52.1650   25.6234 H   0  0  0  0  0  0  0  0  0  0  0  0
   -4.3808  -51.6599   24.2155 H   0  0  0  0  0  0  0  0  0  0  0  0
   -4.3661  -50.6786   25.6611 H   0  0  0  0  0  0  0  0  0  0  0  0
  1  2  2  0  0  0  0
  2  3  1  0  0  0  0
  2 21  1  0  0  0  0
  3  7  1  0  0  0  0
  3  4  2  0  0  0  0
  4  5  1  0  0  0  0
  5 19  1  0  0  0  0
  5  6  2  0  0  0  0
  6  1  1  0  0  0  0
  7  8  1  0  0  0  0
  7  9  1  0  0  0  0
  7 22  1  0  0  0  0
  8 23  1  0  0  0  0
  8 24  1  0  0  0  0
  8 25  1  0  0  0  0
  9 26  1  0  0  0  0
  9 27  1  0  0  0  0
  9 28  1  0  0  0  0
 10  1  1  0  0  0  0
 10 29  1  0  0  0  0
 11 12  2  0  0  0  0
 12 13  1  0  0  0  0
 12 30  1  0  0  0  0
 13 14  2  0  0  0  0
 13 31  1  0  0  0  0
 14 15  1  0  0  0  0
 14 32  1  0  0  0  0
 15 10  1  0  0  0  0
 15 16  2  0  0  0  0
 16 11  1  0  0  0  0
 16 33  1  0  0  0  0
 17 18  3  0  0  0  0
 17 34  1  0  0  0  0
 18 11  1  0  0  0  0
 19 20  1  0  0  0  0
 20 35  1  0  0  0  0
 20 36  1  0  0  0  0
 20 37  1  0  0  0  0
M  END
>  <minimizedAffinity>
-6.77201

$$$$

 OpenBabel09092411003D

 30 32  0  0  0  0  0  0  0  0999 V2000
    0.4426  -53.5531   23.6929 N   0  0  0  0  0  0  0  0  0  0  0  0
    0.4973  -52.7442   24.9549 C   0  0  0  0  0  0  0  0  0  0  0  0
    1.8213  -52.4181   25.5798 N   0  0  0  0  0  0  0  0  0  0  0  0
    1.8761  -51.6092   26.8418 C   0  0  0  0  0  0  0  0  0  0  0  0
    0.6068  -51.1263   27.4788 N   0  0  0  0  0  0  0  0  0  0  0  0
   -0.7173  -51.4525   26.8539 C   0  0  0  0  0  0  0  0  0  0  0  0
   -0.7720  -52.2614   25.5919 C   0  0  0  0  0  0  0  0  0  0  0  0
   -2.0960  -52.5875   24.9669 O   0  0  0  0  0  0  0  0  0  0  0  0
   -3.3652  -52.1047   25.6039 C   0  0  0  0  0  0  0  0  0  0  0  0
   -3.3105  -51.2958   26.8659 C   0  0  0  0  0  0  0  0  0  0  0  0
   -1.9865  -50.9696   27.4909 O   0  0  0  0  0  0  0  0  0  0  0  0
    0.6653  -50.8269   20.8174 C   0  0  0  0  0  0  0  0  0  0  0  0
    1.3450  -51.6117   19.7348 C   0  0  0  0  0  0  0  0  0  0  0  0
    1.7239  -53.0436   19.9715 C   0  0  0  0  0  0  0  0  0  0  0  0
    1.4231  -53.6908   21.2908 C   0  0  0  0  0  0  0  0  0  0  0  0
    0.7434  -52.9060   22.3735 C   0  0  0  0  0  0  0  0  0  0  0  0
    0.3645  -51.4741   22.1368 C   0  0  0  0  0  0  0  0  0  0  0  0
   -0.0925  -47.9631   20.3440 C   0  0  0  0  0  0  0  0  0  0  0  0
    0.2864  -49.3950   20.5807 C   0  0  0  0  0  0  0  0  0  0  0  0
    0.2093  -54.5088   23.7306 H   0  0  0  0  0  0  0  0  0  0  0  0
    2.7870  -51.3849   27.2718 H   0  0  0  0  0  0  0  0  0  0  0  0
   -3.9527  -52.9728   25.8187 H   0  0  0  0  0  0  0  0  0  0  0  0
   -3.7535  -51.4134   24.8854 H   0  0  0  0  0  0  0  0  0  0  0  0
   -3.8754  -51.8308   27.6004 H   0  0  0  0  0  0  0  0  0  0  0  0
   -3.6809  -50.3393   26.5612 H   0  0  0  0  0  0  0  0  0  0  0  0
    1.5520  -51.1665   18.8271 H   0  0  0  0  0  0  0  0  0  0  0  0
    2.1916  -53.5835   19.2266 H   0  0  0  0  0  0  0  0  0  0  0  0
    1.6838  -54.6760   21.4536 H   0  0  0  0  0  0  0  0  0  0  0  0
   -0.1031  -50.9342   22.8817 H   0  0  0  0  0  0  0  0  0  0  0  0
   -0.3436  -47.0142   20.1871 H   0  0  0  0  0  0  0  0  0  0  0  0
  1  2  1  0  0  0  0
  1 20  1  0  0  0  0
  2  3  2  0  0  0  0
  3  4  1  0  0  0  0
  4  5  2  0  0  0  0
  4 21  1  0  0  0  0
  5  6  1  0  0  0  0
  6  7  2  0  0  0  0
  7  8  1  0  0  0  0
  7  2  1  0  0  0  0
  8  9  1  0  0  0  0
  9 10  1  0  0  0  0
  9 22  1  0  0  0  0
  9 23  1  0  0  0  0
 10 11  1  0  0  0  0
 10 24  1  0  0  0  0
 10 25  1  0  0  0  0
 11  6  1  0  0  0  0
 12 13  2  0  0  0  0
 13 14  1  0  0  0  0
 13 26  1  0  0  0  0
 14 15  2  0  0  0  0
 14 27  1  0  0  0  0
 15 16  1  0  0  0  0
 15 28  1  0  0  0  0
 16  1  1  0  0  0  0
 16 17  2  0  0  0  0
 17 12  1  0  0  0  0
 17 29  1  0  0  0  0
 18 19  3  0  0  0  0
 18 30  1  0  0  0  0
 19 12  1  0  0  0  0
M  END
>  <minimizedAffinity>
-7.10819

$$$$

 OpenBabel09092411003D

 34 35  0  0  0  0  0  0  0  0999 V2000
   -1.1976  -51.1611   26.7053 C   0  0  0  0  0  0  0  0  0  0  0  0
   -0.9671  -50.2236   25.5574 N   0  0  0  0  0  0  0  0  0  0  0  0
   -2.0507  -49.9961   24.5455 C   0  0  0  0  0  0  0  0  0  0  0  0
   -3.3649  -50.7063   24.6815 N   0  0  0  0  0  0  0  0  0  0  0  0
   -3.5955  -51.6438   25.8295 C   0  0  0  0  0  0  0  0  0  0  0  0
   -2.5118  -51.8712   26.8414 C   0  0  0  0  0  0  0  0  0  0  0  0
   -2.7424  -52.8089   27.9894 F   0  0  0  0  0  0  0  0  0  0  0  0
   -1.8201  -49.0585   23.3975 N   0  0  0  0  0  0  0  0  0  0  0  0
   -0.9292  -49.4678   22.2622 C   0  0  0  0  0  0  0  0  0  0  0  0
   -0.6509  -48.5078   21.1437 C   0  0  0  0  0  0  0  0  0  0  0  0
    0.2400  -48.9170   20.0084 C   0  0  0  0  0  0  0  0  0  0  0  0
    0.8525  -50.2862   19.9917 C   0  0  0  0  0  0  0  0  0  0  0  0
    0.5742  -51.2461   21.1102 C   0  0  0  0  0  0  0  0  0  0  0  0
   -0.3167  -50.8369   22.2455 C   0  0  0  0  0  0  0  0  0  0  0  0
    1.1867  -52.6153   21.0935 C   0  0  0  0  0  0  0  0  0  0  0  0
    1.7993  -53.9844   21.0768 N   0  0  0  0  0  0  0  0  0  0  0  0
   -0.1139  -51.3886   27.7172 O   0  0  0  0  0  0  0  0  0  0  0  0
    0.8357  -52.5381   27.5536 C   0  0  0  0  0  0  0  0  0  0  0  0
    0.3105  -53.9036   27.2230 C   0  0  0  0  0  0  0  0  0  0  0  0
    0.5327  -53.6127   24.6508 C   0  0  0  0  0  0  0  0  0  0  0  0
    0.5548  -54.4928   25.8653 O   0  0  0  0  0  0  0  0  0  0  0  0
   -4.4997  -52.1323   25.9231 H   0  0  0  0  0  0  0  0  0  0  0  0
   -2.2535  -48.1745   23.3892 H   0  0  0  0  0  0  0  0  0  0  0  0
   -1.0723  -47.5658   21.1553 H   0  0  0  0  0  0  0  0  0  0  0  0
    0.4315  -48.2566   19.2389 H   0  0  0  0  0  0  0  0  0  0  0  0
    1.4654  -50.5678   19.2106 H   0  0  0  0  0  0  0  0  0  0  0  0
   -0.5082  -51.4973   23.0150 H   0  0  0  0  0  0  0  0  0  0  0  0
    1.5134  -52.2698   26.7702 H   0  0  0  0  0  0  0  0  0  0  0  0
    1.2429  -52.6623   28.5353 H   0  0  0  0  0  0  0  0  0  0  0  0
    0.7375  -54.5793   27.9343 H   0  0  0  0  0  0  0  0  0  0  0  0
   -0.7510  -53.7710   27.2462 H   0  0  0  0  0  0  0  0  0  0  0  0
    0.7257  -54.2027   23.7793 H   0  0  0  0  0  0  0  0  0  0  0  0
    1.2848  -52.8574   24.7440 H   0  0  0  0  0  0  0  0  0  0  0  0
   -0.4282  -53.1503   24.5629 H   0  0  0  0  0  0  0  0  0  0  0  0
  1  2  2  0  0  0  0
  2  3  1  0  0  0  0
  3  8  1  0  0  0  0
  3  4  2  0  0  0  0
  4  5  1  0  0  0  0
  5  6  2  0  0  0  0
  5 22  1  0  0  0  0
  6  7  1  0  0  0  0
  6  1  1  0  0  0  0
  8  9  1  0  0  0  0
  8 23  1  0  0  0  0
  9 10  2  0  0  0  0
 10 11  1  0  0  0  0
 10 24  1  0  0  0  0
 11 12  2  0  0  0  0
 11 25  1  0  0  0  0
 12 13  1  0  0  0  0
 12 26  1  0  0  0  0
 13 15  1  0  0  0  0
 13 14  2  0  0  0  0
 14  9  1  0  0  0  0
 14 27  1  0  0  0  0
 15 16  3  0  0  0  0
 17  1  1  0  0  0  0
 18 17  1  0  0  0  0
 18 28  1  0  0  0  0
 18 29  1  0  0  0  0
 19 18  1  0  0  0  0
 19 30  1  0  0  0  0
 19 31  1  0  0  0  0
 20 21  1  0  0  0  0
 20 32  1  0  0  0  0
 20 33  1  0  0  0  0
 20 34  1  0  0  0  0
 21 19  1  0  0  0  0
M  END
>  <minimizedAffinity>
-6.15640

$$$$

 OpenBabel09092411003D

 34 35  0  0  0  0  0  0  0  0999 V2000
   -1.8985  -51.5487   26.7746 C   0  0  0  0  0  0  0  0  0  0  0  0
   -1.3796  -50.5407   25.7925 C   0  0  0  0  0  0  0  0  0  0  0  0
   -2.1938  -50.1822   24.5848 C   0  0  0  0  0  0  0  0  0  0  0  0
   -3.5270  -50.8317   24.3593 N   0  0  0  0  0  0  0  0  0  0  0  0
   -4.0458  -51.8397   25.3414 C   0  0  0  0  0  0  0  0  0  0  0  0
   -3.2316  -52.1982   26.5491 N   0  0  0  0  0  0  0  0  0  0  0  0
   -1.6749  -49.1741   23.6027 N   0  0  0  0  0  0  0  0  0  0  0  0
   -0.8304  -49.6199   22.4459 C   0  0  0  0  0  0  0  0  0  0  0  0
   -0.6108  -48.7020   21.2799 C   0  0  0  0  0  0  0  0  0  0  0  0
    0.2337  -49.1478   20.1232 C   0  0  0  0  0  0  0  0  0  0  0  0
    0.8586  -50.5114   20.1324 C   0  0  0  0  0  0  0  0  0  0  0  0
    0.6391  -51.4292   21.2983 C   0  0  0  0  0  0  0  0  0  0  0  0
   -0.2054  -50.9834   22.4551 C   0  0  0  0  0  0  0  0  0  0  0  0
    1.2641  -52.7928   21.3076 C   0  0  0  0  0  0  0  0  0  0  0  0
    1.8890  -54.1564   21.3168 N   0  0  0  0  0  0  0  0  0  0  0  0
   -1.0842  -51.9073   27.9823 O   0  0  0  0  0  0  0  0  0  0  0  0
    0.1235  -52.7853   27.8389 C   0  0  0  0  0  0  0  0  0  0  0  0
   -0.0338  -54.2115   27.4017 C   0  0  0  0  0  0  0  0  0  0  0  0
    0.4229  -53.7581   24.8846 C   0  0  0  0  0  0  0  0  0  0  0  0
   -0.2862  -54.5298   25.9577 O   0  0  0  0  0  0  0  0  0  0  0  0
   -0.4624  -50.0938   25.9477 H   0  0  0  0  0  0  0  0  0  0  0  0
   -4.9630  -52.2866   25.1862 H   0  0  0  0  0  0  0  0  0  0  0  0
   -1.8886  -48.2199   23.7173 H   0  0  0  0  0  0  0  0  0  0  0  0
   -1.0407  -47.7638   21.2736 H   0  0  0  0  0  0  0  0  0  0  0  0
    0.3848  -48.5164   19.3210 H   0  0  0  0  0  0  0  0  0  0  0  0
    1.4396  -50.8181   19.3365 H   0  0  0  0  0  0  0  0  0  0  0  0
   -0.3564  -51.6148   23.2573 H   0  0  0  0  0  0  0  0  0  0  0  0
    0.7661  -52.3127   27.1257 H   0  0  0  0  0  0  0  0  0  0  0  0
    0.4837  -52.8740   28.8425 H   0  0  0  0  0  0  0  0  0  0  0  0
    0.8663  -54.7201   27.6774 H   0  0  0  0  0  0  0  0  0  0  0  0
   -0.9390  -54.5179   27.8830 H   0  0  0  0  0  0  0  0  0  0  0  0
    0.1202  -54.1214   23.9248 H   0  0  0  0  0  0  0  0  0  0  0  0
    1.4799  -53.8817   24.9956 H   0  0  0  0  0  0  0  0  0  0  0  0
    0.1744  -52.7207   24.9679 H   0  0  0  0  0  0  0  0  0  0  0  0
  1  2  2  0  0  0  0
  2  3  1  0  0  0  0
  2 21  1  0  0  0  0
  3  7  1  0  0  0  0
  3  4  2  0  0  0  0
  4  5  1  0  0  0  0
  5  6  2  0  0  0  0
  5 22  1  0  0  0  0
  6  1  1  0  0  0  0
  7  8  1  0  0  0  0
  7 23  1  0  0  0  0
  8  9  2  0  0  0  0
  9 10  1  0  0  0  0
  9 24  1  0  0  0  0
 10 11  2  0  0  0  0
 10 25  1  0  0  0  0
 11 12  1  0  0  0  0
 11 26  1  0  0  0  0
 12 14  1  0  0  0  0
 12 13  2  0  0  0  0
 13  8  1  0  0  0  0
 13 27  1  0  0  0  0
 14 15  3  0  0  0  0
 16  1  1  0  0  0  0
 17 16  1  0  0  0  0
 17 28  1  0  0  0  0
 17 29  1  0  0  0  0
 18 17  1  0  0  0  0
 18 30  1  0  0  0  0
 18 31  1  0  0  0  0
 19 20  1  0  0  0  0
 19 32  1  0  0  0  0
 19 33  1  0  0  0  0
 19 34  1  0  0  0  0
 20 18  1  0  0  0  0
M  END
>  <minimizedAffinity>
-6.18167

$$$$

 OpenBabel09092411003D

 37 39  0  0  0  0  0  0  0  0999 V2000
    0.4698  -50.2762   18.2436 C   0  0  0  0  0  0  0  0  0  0  0  0
    0.9414  -51.6768   18.4999 C   0  0  0  0  0  0  0  0  0  0  0  0
    1.0384  -52.1900   19.9061 C   0  0  0  0  0  0  0  0  0  0  0  0
    1.5100  -53.5906   20.1625 N   0  0  0  0  0  0  0  0  0  0  0  0
    1.6070  -54.1038   21.5686 C   0  0  0  0  0  0  0  0  0  0  0  0
    1.2324  -53.2162   22.7184 N   0  0  0  0  0  0  0  0  0  0  0  0
    0.7608  -51.8156   22.4620 C   0  0  0  0  0  0  0  0  0  0  0  0
    0.6638  -51.3025   21.0559 C   0  0  0  0  0  0  0  0  0  0  0  0
    0.1922  -49.9018   20.7995 C   0  0  0  0  0  0  0  0  0  0  0  0
    0.0952  -49.3887   19.3934 C   0  0  0  0  0  0  0  0  0  0  0  0
    0.2009  -50.7239   15.6985 C   0  0  0  0  0  0  0  0  0  0  0  0
    0.3728  -49.7630   16.8374 O   0  0  0  0  0  0  0  0  0  0  0  0
    0.3863  -50.9281   23.6118 N   0  0  0  0  0  0  0  0  0  0  0  0
    0.6325  -51.3813   25.0203 C   0  0  0  0  0  0  0  0  0  0  0  0
    1.9214  -51.0349   25.7052 C   0  0  0  0  0  0  0  0  0  0  0  0
    2.1677  -51.4880   27.1137 C   0  0  0  0  0  0  0  0  0  0  0  0
    1.1251  -52.2876   27.8374 C   0  0  0  0  0  0  0  0  0  0  0  0
   -0.1637  -52.6341   27.1526 C   0  0  0  0  0  0  0  0  0  0  0  0
   -0.4100  -52.1809   25.7440 C   0  0  0  0  0  0  0  0  0  0  0  0
   -1.2062  -53.4337   27.8764 C   0  0  0  0  0  0  0  0  0  0  0  0
   -2.2487  -54.2333   28.6001 N   0  0  0  0  0  0  0  0  0  0  0  0
   -0.3764  -47.9879   19.1369 O   0  0  0  0  0  0  0  0  0  0  0  0
   -1.5517  -47.4422   19.8924 C   0  0  0  0  0  0  0  0  0  0  0  0
    1.1991  -52.2874   17.7088 H   0  0  0  0  0  0  0  0  0  0  0  0
    1.9314  -55.0675   21.7450 H   0  0  0  0  0  0  0  0  0  0  0  0
   -0.0655  -49.2912   21.5905 H   0  0  0  0  0  0  0  0  0  0  0  0
    0.1514  -50.1807   14.7779 H   0  0  0  0  0  0  0  0  0  0  0  0
   -0.7035  -51.2794   15.8339 H   0  0  0  0  0  0  0  0  0  0  0  0
    1.0322  -51.3971   15.6712 H   0  0  0  0  0  0  0  0  0  0  0  0
   -0.0211  -50.0481   23.4420 H   0  0  0  0  0  0  0  0  0  0  0  0
    2.6387  -50.4848   25.2073 H   0  0  0  0  0  0  0  0  0  0  0  0
    3.0544  -51.2496   27.5849 H   0  0  0  0  0  0  0  0  0  0  0  0
    1.2945  -52.5993   28.8065 H   0  0  0  0  0  0  0  0  0  0  0  0
   -1.2967  -52.4192   25.2728 H   0  0  0  0  0  0  0  0  0  0  0  0
   -1.7411  -46.4366   19.5796 H   0  0  0  0  0  0  0  0  0  0  0  0
   -1.3390  -47.4555   20.9410 H   0  0  0  0  0  0  0  0  0  0  0  0
   -2.4134  -48.0452   19.6956 H   0  0  0  0  0  0  0  0  0  0  0  0
  1  2  2  0  0  0  0
  2  3  1  0  0  0  0
  2 24  1  0  0  0  0
  3  4  2  0  0  0  0
  4  5  1  0  0  0  0
  5  6  2  0  0  0  0
  5 25  1  0  0  0  0
  6  7  1  0  0  0  0
  7 13  1  0  0  0  0
  7  8  2  0  0  0  0
  8  9  1  0  0  0  0
  8  3  1  0  0  0  0
  9 10  2  0  0  0  0
  9 26  1  0  0  0  0
 10 22  1  0  0  0  0
 10  1  1  0  0  0  0
 11 12  1  0  0  0  0
 11 27  1  0  0  0  0
 11 28  1  0  0  0  0
 11 29  1  0  0  0  0
 12  1  1  0  0  0  0
 13 14  1  0  0  0  0
 13 30  1  0  0  0  0
 14 15  2  0  0  0  0
 15 16  1  0  0  0  0
 15 31  1  0  0  0  0
 16 17  2  0  0  0  0
 16 32  1  0  0  0  0
 17 18  1  0  0  0  0
 17 33  1  0  0  0  0
 18 20  1  0  0  0  0
 18 19  2  0  0  0  0
 19 14  1  0  0  0  0
 19 34  1  0  0  0  0
 20 21  3  0  0  0  0
 22 23  1  0  0  0  0
 23 35  1  0  0  0  0
 23 36  1  0  0  0  0
 23 37  1  0  0  0  0
M  END
>  <minimizedAffinity>
-7.19257

$$$$

 OpenBabel09092411003D

 38 40  0  0  0  0  0  0  0  0999 V2000
   -0.1912  -52.7481   25.9178 C   0  0  0  0  0  0  0  0  0  0  0  0
   -0.1846  -52.6462   27.4143 N   0  0  0  0  0  0  0  0  0  0  0  0
    1.0386  -52.1503   28.1269 C   0  0  0  0  0  0  0  0  0  0  0  0
    2.2553  -51.7563   27.3430 N   0  0  0  0  0  0  0  0  0  0  0  0
    2.2487  -51.8582   25.8465 C   0  0  0  0  0  0  0  0  0  0  0  0
    1.0255  -52.3541   25.1339 C   0  0  0  0  0  0  0  0  0  0  0  0
    1.0189  -52.4560   23.6373 C   0  0  0  0  0  0  0  0  0  0  0  0
    1.2351  -53.7844   22.9751 C   0  0  0  0  0  0  0  0  0  0  0  0
    1.2286  -53.8864   21.4786 C   0  0  0  0  0  0  0  0  0  0  0  0
    1.0058  -52.6599   20.6443 C   0  0  0  0  0  0  0  0  0  0  0  0
    0.7896  -51.3314   21.3065 C   0  0  0  0  0  0  0  0  0  0  0  0
    0.7962  -51.2295   22.8030 C   0  0  0  0  0  0  0  0  0  0  0  0
    0.9992  -52.7618   19.1478 O   0  0  0  0  0  0  0  0  0  0  0  0
    0.8171  -51.5291   18.3129 C   0  0  0  0  0  0  0  0  0  0  0  0
   -1.4144  -53.2440   25.2052 N   0  0  0  0  0  0  0  0  0  0  0  0
   -3.5599  -50.9196   22.8085 C   0  0  0  0  0  0  0  0  0  0  0  0
   -4.5301  -50.3240   23.7852 C   0  0  0  0  0  0  0  0  0  0  0  0
   -4.4617  -50.7018   25.2353 C   0  0  0  0  0  0  0  0  0  0  0  0
   -3.4232  -51.6751   25.7086 C   0  0  0  0  0  0  0  0  0  0  0  0
   -2.4530  -52.2706   24.7319 C   0  0  0  0  0  0  0  0  0  0  0  0
   -2.5214  -51.8929   23.2818 C   0  0  0  0  0  0  0  0  0  0  0  0
   -3.6967  -50.1642   19.9084 C   0  0  0  0  0  0  0  0  0  0  0  0
   -3.6283  -50.5419   21.3585 C   0  0  0  0  0  0  0  0  0  0  0  0
    1.0431  -52.0802   29.1565 H   0  0  0  0  0  0  0  0  0  0  0  0
    3.0857  -51.5871   25.3072 H   0  0  0  0  0  0  0  0  0  0  0  0
    1.3883  -54.6282   23.5491 H   0  0  0  0  0  0  0  0  0  0  0  0
    1.3774  -54.8004   21.0230 H   0  0  0  0  0  0  0  0  0  0  0  0
    0.6363  -50.4876   20.7325 H   0  0  0  0  0  0  0  0  0  0  0  0
    0.6475  -50.3155   23.2586 H   0  0  0  0  0  0  0  0  0  0  0  0
    0.8394  -51.7938   17.2764 H   0  0  0  0  0  0  0  0  0  0  0  0
    1.6063  -50.8373   18.5214 H   0  0  0  0  0  0  0  0  0  0  0  0
   -0.1243  -51.0768   18.5453 H   0  0  0  0  0  0  0  0  0  0  0  0
   -1.5356  -54.2083   25.0481 H   0  0  0  0  0  0  0  0  0  0  0  0
   -5.2446  -49.6543   23.4596 H   0  0  0  0  0  0  0  0  0  0  0  0
   -5.1292  -50.2920   25.9073 H   0  0  0  0  0  0  0  0  0  0  0  0
   -3.3762  -51.9350   26.7062 H   0  0  0  0  0  0  0  0  0  0  0  0
   -1.8539  -52.3027   22.6098 H   0  0  0  0  0  0  0  0  0  0  0  0
   -3.7420  -49.9139   18.9475 H   0  0  0  0  0  0  0  0  0  0  0  0
  1  2  2  0  0  0  0
  2  3  1  0  0  0  0
  3  4  2  0  0  0  0
  3 24  1  0  0  0  0
  4  5  1  0  0  0  0
  5  6  2  0  0  0  0
  5 25  1  0  0  0  0
  6  7  1  0  0  0  0
  6  1  1  0  0  0  0
  7  8  2  0  0  0  0
  8  9  1  0  0  0  0
  8 26  1  0  0  0  0
  9 10  2  0  0  0  0
  9 27  1  0  0  0  0
 10 13  1  0  0  0  0
 10 11  1  0  0  0  0
 11 12  2  0  0  0  0
 11 28  1  0  0  0  0
 12  7  1  0  0  0  0
 12 29  1  0  0  0  0
 13 14  1  0  0  0  0
 14 30  1  0  0  0  0
 14 31  1  0  0  0  0
 14 32  1  0  0  0  0
 15  1  1  0  0  0  0
 15 33  1  0  0  0  0
 16 17  2  0  0  0  0
 17 18  1  0  0  0  0
 17 34  1  0  0  0  0
 18 19  2  0  0  0  0
 18 35  1  0  0  0  0
 19 20  1  0  0  0  0
 19 36  1  0  0  0  0
 20 15  1  0  0  0  0
 20 21  2  0  0  0  0
 21 16  1  0  0  0  0
 21 37  1  0  0  0  0
 22 23  3  0  0  0  0
 22 38  1  0  0  0  0
 23 16  1  0  0  0  0
M  END
>  <minimizedAffinity>
-6.99396

$$$$

 OpenBabel09092411003D

 32 34  0  0  0  0  0  0  0  0999 V2000
    0.6978  -52.7104   24.7349 C   0  0  0  0  0  0  0  0  0  0  0  0
    1.8965  -52.3490   25.5609 N   0  0  0  0  0  0  0  0  0  0  0  0
    1.7286  -51.5376   26.8113 C   0  0  0  0  0  0  0  0  0  0  0  0
    0.3621  -51.0876   27.2356 N   0  0  0  0  0  0  0  0  0  0  0  0
   -0.8366  -51.4490   26.4095 C   0  0  0  0  0  0  0  0  0  0  0  0
   -2.2971  -51.1497   26.5752 N   0  0  0  0  0  0  0  0  0  0  0  0
   -3.0319  -51.7761   25.4273 C   0  0  0  0  0  0  0  0  0  0  0  0
   -2.0255  -52.4626   24.5521 C   0  0  0  0  0  0  0  0  0  0  0  0
   -0.6688  -52.2604   25.1592 C   0  0  0  0  0  0  0  0  0  0  0  0
    0.8656  -53.5219   23.4845 N   0  0  0  0  0  0  0  0  0  0  0  0
    0.6344  -50.7111   20.6923 C   0  0  0  0  0  0  0  0  0  0  0  0
    1.1011  -51.4709   19.4860 C   0  0  0  0  0  0  0  0  0  0  0  0
    1.4892  -52.9142   19.6126 C   0  0  0  0  0  0  0  0  0  0  0  0
    1.4107  -53.5979   20.9454 C   0  0  0  0  0  0  0  0  0  0  0  0
    0.9441  -52.8382   22.1516 C   0  0  0  0  0  0  0  0  0  0  0  0
    0.5559  -51.3948   22.0251 C   0  0  0  0  0  0  0  0  0  0  0  0
   -0.1418  -47.8244   20.4391 C   0  0  0  0  0  0  0  0  0  0  0  0
    0.2463  -49.2678   20.5657 C   0  0  0  0  0  0  0  0  0  0  0  0
   -4.5130  -51.7250   25.1953 O   0  0  0  0  0  0  0  0  0  0  0  0
   -5.0482  -51.3469   23.8461 C   0  0  0  0  0  0  0  0  0  0  0  0
    2.5533  -51.2890   27.3797 H   0  0  0  0  0  0  0  0  0  0  0  0
   -2.7023  -50.6328   27.3086 H   0  0  0  0  0  0  0  0  0  0  0  0
   -2.2305  -52.9827   23.6846 H   0  0  0  0  0  0  0  0  0  0  0  0
    0.9242  -54.5032   23.5386 H   0  0  0  0  0  0  0  0  0  0  0  0
    1.1551  -51.0006   18.5690 H   0  0  0  0  0  0  0  0  0  0  0  0
    1.8103  -53.4369   18.7827 H   0  0  0  0  0  0  0  0  0  0  0  0
    1.6777  -54.5909   21.0325 H   0  0  0  0  0  0  0  0  0  0  0  0
    0.2348  -50.8722   22.8550 H   0  0  0  0  0  0  0  0  0  0  0  0
   -0.3990  -46.8679   20.3552 H   0  0  0  0  0  0  0  0  0  0  0  0
   -6.1178  -51.3641   23.8691 H   0  0  0  0  0  0  0  0  0  0  0  0
   -4.6959  -52.0437   23.1145 H   0  0  0  0  0  0  0  0  0  0  0  0
   -4.7127  -50.3631   23.5922 H   0  0  0  0  0  0  0  0  0  0  0  0
  1  2  2  0  0  0  0
  2  3  1  0  0  0  0
  3  4  2  0  0  0  0
  3 21  1  0  0  0  0
  4  5  1  0  0  0  0
  5  6  1  0  0  0  0
  6  7  1  0  0  0  0
  6 22  1  0  0  0  0
  7 19  1  0  0  0  0
  7  8  2  0  0  0  0
  8  9  1  0  0  0  0
  8 23  1  0  0  0  0
  9  1  1  0  0  0  0
  9  5  2  0  0  0  0
 10  1  1  0  0  0  0
 10 24  1  0  0  0  0
 11 12  2  0  0  0  0
 12 13  1  0  0  0  0
 12 25  1  0  0  0  0
 13 14  2  0  0  0  0
 13 26  1  0  0  0  0
 14 15  1  0  0  0  0
 14 27  1  0  0  0  0
 15 10  1  0  0  0  0
 15 16  2  0  0  0  0
 16 11  1  0  0  0  0
 16 28  1  0  0  0  0
 17 18  3  0  0  0  0
 17 29  1  0  0  0  0
 18 11  1  0  0  0  0
 19 20  1  0  0  0  0
 20 30  1  0  0  0  0
 20 31  1  0  0  0  0
 20 32  1  0  0  0  0
M  END
>  <minimizedAffinity>
-7.01615

$$$$

 OpenBabel09092411003D

 38 40  0  0  0  0  0  0  0  0999 V2000
    0.5748  -51.7292   19.4634 C   0  0  0  0  0  0  0  0  0  0  0  0
    0.1813  -50.2939   19.2763 N   0  0  0  0  0  0  0  0  0  0  0  0
   -0.0246  -49.4108   20.4711 C   0  0  0  0  0  0  0  0  0  0  0  0
    0.1632  -49.9630   21.8531 N   0  0  0  0  0  0  0  0  0  0  0  0
    0.5567  -51.3982   22.0403 C   0  0  0  0  0  0  0  0  0  0  0  0
    0.7445  -51.9504   23.4222 C   0  0  0  0  0  0  0  0  0  0  0  0
    1.1380  -53.3857   23.6094 C   0  0  0  0  0  0  0  0  0  0  0  0
    1.3439  -54.2689   22.4145 C   0  0  0  0  0  0  0  0  0  0  0  0
    1.1562  -53.7167   21.0325 C   0  0  0  0  0  0  0  0  0  0  0  0
    0.7626  -52.2814   20.8454 C   0  0  0  0  0  0  0  0  0  0  0  0
    0.7807  -52.6124   18.2686 N   0  0  0  0  0  0  0  0  0  0  0  0
    3.4761  -51.9826   15.4246 C   0  0  0  0  0  0  0  0  0  0  0  0
    2.7610  -50.9746   14.5745 C   0  0  0  0  0  0  0  0  0  0  0  0
    1.3858  -50.5125   14.9558 C   0  0  0  0  0  0  0  0  0  0  0  0
    0.7257  -51.0585   16.1872 C   0  0  0  0  0  0  0  0  0  0  0  0
    1.4408  -52.0665   17.0372 C   0  0  0  0  0  0  0  0  0  0  0  0
    2.8160  -52.5286   16.6559 C   0  0  0  0  0  0  0  0  0  0  0  0
    6.2264  -52.9067   14.6619 C   0  0  0  0  0  0  0  0  0  0  0  0
    4.8512  -52.4447   15.0432 C   0  0  0  0  0  0  0  0  0  0  0  0
    0.5386  -51.0673   24.6171 O   0  0  0  0  0  0  0  0  0  0  0  0
    1.3922  -51.2457   25.8376 C   0  0  0  0  0  0  0  0  0  0  0  0
    2.8715  -51.0098   25.7592 C   0  0  0  0  0  0  0  0  0  0  0  0
    3.7691  -51.5058   26.8539 O   0  0  0  0  0  0  0  0  0  0  0  0
   -0.2955  -48.4233   20.3424 H   0  0  0  0  0  0  0  0  0  0  0  0
    1.2671  -53.7656   24.5602 H   0  0  0  0  0  0  0  0  0  0  0  0
    1.6147  -55.2564   22.5432 H   0  0  0  0  0  0  0  0  0  0  0  0
    1.2979  -54.3243   20.2104 H   0  0  0  0  0  0  0  0  0  0  0  0
    0.4826  -53.5504   18.2926 H   0  0  0  0  0  0  0  0  0  0  0  0
    3.2151  -50.5990   13.7273 H   0  0  0  0  0  0  0  0  0  0  0  0
    0.8938  -49.8190   14.3710 H   0  0  0  0  0  0  0  0  0  0  0  0
   -0.2204  -50.7406   16.4496 H   0  0  0  0  0  0  0  0  0  0  0  0
    3.3080  -53.2222   17.2407 H   0  0  0  0  0  0  0  0  0  0  0  0
    7.1377  -53.2129   14.4092 H   0  0  0  0  0  0  0  0  0  0  0  0
    1.2573  -52.2558   26.1639 H   0  0  0  0  0  0  0  0  0  0  0  0
    1.0534  -50.4685   26.4904 H   0  0  0  0  0  0  0  0  0  0  0  0
    3.0127  -49.9508   25.7000 H   0  0  0  0  0  0  0  0  0  0  0  0
    3.1692  -51.5938   24.9135 H   0  0  0  0  0  0  0  0  0  0  0  0
    3.5719  -51.0284   27.6750 H   0  0  0  0  0  0  0  0  0  0  0  0
  1  2  2  0  0  0  0
  2  3  1  0  0  0  0
  3  4  2  0  0  0  0
  3 24  1  0  0  0  0
  4  5  1  0  0  0  0
  5  6  2  0  0  0  0
  6 20  1  0  0  0  0
  6  7  1  0  0  0  0
  7  8  2  0  0  0  0
  7 25  1  0  0  0  0
  8  9  1  0  0  0  0
  8 26  1  0  0  0  0
  9 10  2  0  0  0  0
  9 27  1  0  0  0  0
 10  1  1  0  0  0  0
 10  5  1  0  0  0  0
 11  1  1  0  0  0  0
 11 28  1  0  0  0  0
 12 13  2  0  0  0  0
 13 14  1  0  0  0  0
 13 29  1  0  0  0  0
 14 15  2  0  0  0  0
 14 30  1  0  0  0  0
 15 16  1  0  0  0  0
 15 31  1  0  0  0  0
 16 11  1  0  0  0  0
 16 17  2  0  0  0  0
 17 12  1  0  0  0  0
 17 32  1  0  0  0  0
 18 19  3  0  0  0  0
 18 33  1  0  0  0  0
 19 12  1  0  0  0  0
 20 21  1  0  0  0  0
 21 22  1  0  0  0  0
 21 34  1  0  0  0  0
 21 35  1  0  0  0  0
 22 23  1  0  0  0  0
 22 36  1  0  0  0  0
 22 37  1  0  0  0  0
 23 38  1  0  0  0  0
M  END
>  <minimizedAffinity>
-7.55209

$$$$

 OpenBabel09092411003D

 40 42  0  0  0  0  0  0  0  0999 V2000
    0.1518  -49.3627   19.3503 C   0  0  0  0  0  0  0  0  0  0  0  0
    0.4894  -50.2603   18.1969 C   0  0  0  0  0  0  0  0  0  0  0  0
    0.9424  -51.6678   18.4496 C   0  0  0  0  0  0  0  0  0  0  0  0
    1.0577  -52.1776   19.8555 C   0  0  0  0  0  0  0  0  0  0  0  0
    1.5106  -53.5851   20.1081 N   0  0  0  0  0  0  0  0  0  0  0  0
    1.6259  -54.0949   21.5141 C   0  0  0  0  0  0  0  0  0  0  0  0
    1.2883  -53.1973   22.6675 N   0  0  0  0  0  0  0  0  0  0  0  0
    0.8353  -51.7898   22.4149 C   0  0  0  0  0  0  0  0  0  0  0  0
    0.7200  -51.2800   21.0088 C   0  0  0  0  0  0  0  0  0  0  0  0
    0.2671  -49.8725   20.7562 C   0  0  0  0  0  0  0  0  0  0  0  0
    0.4976  -50.8922   23.5682 N   0  0  0  0  0  0  0  0  0  0  0  0
    0.7350  -51.3566   24.9746 C   0  0  0  0  0  0  0  0  0  0  0  0
    2.0369  -51.0533   25.6550 C   0  0  0  0  0  0  0  0  0  0  0  0
    2.2742  -51.5178   27.0613 C   0  0  0  0  0  0  0  0  0  0  0  0
    1.2096  -52.2855   27.7874 C   0  0  0  0  0  0  0  0  0  0  0  0
   -0.0924  -52.5888   27.1070 C   0  0  0  0  0  0  0  0  0  0  0  0
   -0.3297  -52.1243   25.7007 C   0  0  0  0  0  0  0  0  0  0  0  0
   -1.1570  -53.3565   27.8331 C   0  0  0  0  0  0  0  0  0  0  0  0
   -2.2217  -54.1242   28.5591 N   0  0  0  0  0  0  0  0  0  0  0  0
   -0.3012  -47.9552   19.0976 O   0  0  0  0  0  0  0  0  0  0  0  0
   -1.5003  -47.4126   19.8172 C   0  0  0  0  0  0  0  0  0  0  0  0
   -2.8732  -47.9007   19.4609 C   0  0  0  0  0  0  0  0  0  0  0  0
   -3.3804  -50.3967   19.9734 C   0  0  0  0  0  0  0  0  0  0  0  0
   -3.5416  -48.9433   20.3073 O   0  0  0  0  0  0  0  0  0  0  0  0
    0.4100  -49.9095   17.2296 H   0  0  0  0  0  0  0  0  0  0  0  0
    1.1747  -52.2854   17.6561 H   0  0  0  0  0  0  0  0  0  0  0  0
    1.9375  -55.0633   21.6879 H   0  0  0  0  0  0  0  0  0  0  0  0
    0.0348  -49.2549   21.5497 H   0  0  0  0  0  0  0  0  0  0  0  0
    0.1201  -49.9982   23.4021 H   0  0  0  0  0  0  0  0  0  0  0  0
    2.7694  -50.5250   25.1555 H   0  0  0  0  0  0  0  0  0  0  0  0
    3.1700  -51.3092   27.5294 H   0  0  0  0  0  0  0  0  0  0  0  0
    1.3729  -52.6050   28.7550 H   0  0  0  0  0  0  0  0  0  0  0  0
   -1.2255  -52.3329   25.2326 H   0  0  0  0  0  0  0  0  0  0  0  0
   -1.3579  -47.6226   20.8567 H   0  0  0  0  0  0  0  0  0  0  0  0
   -1.5203  -46.3845   19.5213 H   0  0  0  0  0  0  0  0  0  0  0  0
   -3.5151  -47.0446   19.4611 H   0  0  0  0  0  0  0  0  0  0  0  0
   -2.7216  -48.4016   18.5276 H   0  0  0  0  0  0  0  0  0  0  0  0
   -3.9237  -50.9876   20.6809 H   0  0  0  0  0  0  0  0  0  0  0  0
   -2.3436  -50.6585   20.0115 H   0  0  0  0  0  0  0  0  0  0  0  0
   -3.7589  -50.5808   18.9896 H   0  0  0  0  0  0  0  0  0  0  0  0
  1  2  2  0  0  0  0
  2  3  1  0  0  0  0
  2 25  1  0  0  0  0
  3  4  2  0  0  0  0
  3 26  1  0  0  0  0
  4  5  1  0  0  0  0
  5  6  2  0  0  0  0
  6  7  1  0  0  0  0
  6 27  1  0  0  0  0
  7  8  2  0  0  0  0
  8 11  1  0  0  0  0
  8  9  1  0  0  0  0
  9 10  2  0  0  0  0
  9  4  1  0  0  0  0
 10  1  1  0  0  0  0
 10 28  1  0  0  0  0
 11 12  1  0  0  0  0
 11 29  1  0  0  0  0
 12 13  2  0  0  0  0
 13 14  1  0  0  0  0
 13 30  1  0  0  0  0
 14 15  2  0  0  0  0
 14 31  1  0  0  0  0
 15 16  1  0  0  0  0
 15 32  1  0  0  0  0
 16 18  1  0  0  0  0
 16 17  2  0  0  0  0
 17 12  1  0  0  0  0
 17 33  1  0  0  0  0
 18 19  3  0  0  0  0
 20  1  1  0  0  0  0
 21 20  1  0  0  0  0
 21 34  1  0  0  0  0
 21 35  1  0  0  0  0
 22 21  1  0  0  0  0
 22 36  1  0  0  0  0
 22 37  1  0  0  0  0
 23 24  1  0  0  0  0
 23 38  1  0  0  0  0
 23 39  1  0  0  0  0
 23 40  1  0  0  0  0
 24 22  1  0  0  0  0
M  END
>  <minimizedAffinity>
-6.87227

$$$$

 OpenBabel09092411003D

 44 46  0  0  0  0  0  0  0  0999 V2000
   -1.5310  -51.4118   26.1236 C   0  0  0  0  0  0  0  0  0  0  0  0
   -2.7889  -51.6231   25.3345 C   0  0  0  0  0  0  0  0  0  0  0  0
   -2.8205  -51.2945   23.8712 C   0  0  0  0  0  0  0  0  0  0  0  0
   -4.0785  -51.5059   23.0821 N   0  0  0  0  0  0  0  0  0  0  0  0
   -4.1101  -51.1773   21.6189 C   0  0  0  0  0  0  0  0  0  0  0  0
   -2.8836  -50.6374   20.9448 N   0  0  0  0  0  0  0  0  0  0  0  0
   -1.6256  -50.4261   21.7340 C   0  0  0  0  0  0  0  0  0  0  0  0
   -1.5941  -50.7546   23.1972 C   0  0  0  0  0  0  0  0  0  0  0  0
   -0.3361  -50.5433   23.9864 C   0  0  0  0  0  0  0  0  0  0  0  0
   -0.3045  -50.8719   25.4496 C   0  0  0  0  0  0  0  0  0  0  0  0
   -0.3992  -49.8862   21.0599 N   0  0  0  0  0  0  0  0  0  0  0  0
    0.4788  -50.7995   20.2569 C   0  0  0  0  0  0  0  0  0  0  0  0
    1.4154  -51.7425   20.9524 C   0  0  0  0  0  0  0  0  0  0  0  0
    2.2934  -52.6558   20.1493 C   0  0  0  0  0  0  0  0  0  0  0  0
    2.2348  -52.6262   18.6508 C   0  0  0  0  0  0  0  0  0  0  0  0
    1.2983  -51.6833   17.9552 C   0  0  0  0  0  0  0  0  0  0  0  0
    0.4203  -50.7699   18.7583 C   0  0  0  0  0  0  0  0  0  0  0  0
    1.2398  -51.6537   16.4567 C   0  0  0  0  0  0  0  0  0  0  0  0
    1.1812  -51.6241   14.9581 N   0  0  0  0  0  0  0  0  0  0  0  0
    0.9535  -50.6606   26.2388 O   0  0  0  0  0  0  0  0  0  0  0  0
    2.2692  -51.1307   25.6929 C   0  0  0  0  0  0  0  0  0  0  0  0
   -1.4994  -51.7404   27.5869 O   0  0  0  0  0  0  0  0  0  0  0  0
   -1.1898  -53.1379   28.0352 C   0  0  0  0  0  0  0  0  0  0  0  0
    0.0045  -53.8562   27.4806 C   0  0  0  0  0  0  0  0  0  0  0  0
    0.4046  -54.4071   24.9734 C   0  0  0  0  0  0  0  0  0  0  0  0
   -0.1540  -54.7847   26.3132 O   0  0  0  0  0  0  0  0  0  0  0  0
   -3.6327  -51.9946   25.7983 H   0  0  0  0  0  0  0  0  0  0  0  0
   -4.9756  -51.3227   21.0760 H   0  0  0  0  0  0  0  0  0  0  0  0
    0.5077  -50.1718   23.5226 H   0  0  0  0  0  0  0  0  0  0  0  0
   -0.1705  -48.9324   21.1445 H   0  0  0  0  0  0  0  0  0  0  0  0
    1.4557  -51.7629   21.9834 H   0  0  0  0  0  0  0  0  0  0  0  0
    2.9378  -53.3045   20.6278 H   0  0  0  0  0  0  0  0  0  0  0  0
    2.8389  -53.2546   18.0983 H   0  0  0  0  0  0  0  0  0  0  0  0
   -0.2240  -50.1211   18.2798 H   0  0  0  0  0  0  0  0  0  0  0  0
    3.0481  -50.8959   26.3879 H   0  0  0  0  0  0  0  0  0  0  0  0
    2.4636  -50.6424   24.7609 H   0  0  0  0  0  0  0  0  0  0  0  0
    2.2344  -52.1892   25.5405 H   0  0  0  0  0  0  0  0  0  0  0  0
   -1.0623  -53.1006   29.0969 H   0  0  0  0  0  0  0  0  0  0  0  0
   -2.0150  -53.7055   27.6585 H   0  0  0  0  0  0  0  0  0  0  0  0
    0.7068  -53.1051   27.1847 H   0  0  0  0  0  0  0  0  0  0  0  0
    0.2903  -54.5101   28.2779 H   0  0  0  0  0  0  0  0  0  0  0  0
    0.1974  -55.1850   24.2685 H   0  0  0  0  0  0  0  0  0  0  0  0
    1.4629  -54.2711   25.0537 H   0  0  0  0  0  0  0  0  0  0  0  0
   -0.0480  -53.4959   24.6422 H   0  0  0  0  0  0  0  0  0  0  0  0
  1  2  2  0  0  0  0
  2  3  1  0  0  0  0
  2 27  1  0  0  0  0
  3  4  2  0  0  0  0
  4  5  1  0  0  0  0
  5  6  2  0  0  0  0
  5 28  1  0  0  0  0
  6  7  1  0  0  0  0
  7 11  1  0  0  0  0
  7  8  2  0  0  0  0
  8  9  1  0  0  0  0
  8  3  1  0  0  0  0
  9 10  2  0  0  0  0
  9 29  1  0  0  0  0
 10 20  1  0  0  0  0
 10  1  1  0  0  0  0
 11 12  1  0  0  0  0
 11 30  1  0  0  0  0
 12 13  2  0  0  0  0
 13 14  1  0  0  0  0
 13 31  1  0  0  0  0
 14 15  2  0  0  0  0
 14 32  1  0  0  0  0
 15 16  1  0  0  0  0
 15 33  1  0  0  0  0
 16 18  1  0  0  0  0
 16 17  2  0  0  0  0
 17 12  1  0  0  0  0
 17 34  1  0  0  0  0
 18 19  3  0  0  0  0
 20 21  1  0  0  0  0
 21 35  1  0  0  0  0
 21 36  1  0  0  0  0
 21 37  1  0  0  0  0
 22  1  1  0  0  0  0
 23 22  1  0  0  0  0
 23 38  1  0  0  0  0
 23 39  1  0  0  0  0
 24 23  1  0  0  0  0
 24 40  1  0  0  0  0
 24 41  1  0  0  0  0
 25 26  1  0  0  0  0
 25 42  1  0  0  0  0
 25 43  1  0  0  0  0
 25 44  1  0  0  0  0
 26 24  1  0  0  0  0
M  END
>  <minimizedAffinity>
-6.59849

$$$$

 OpenBabel09092411003D

 51 53  0  0  0  0  0  0  0  0999 V2000
   -0.5032  -53.3364   25.0932 C   0  0  0  0  0  0  0  0  0  0  0  0
    0.5717  -53.3054   24.0475 C   0  0  0  0  0  0  0  0  0  0  0  0
    0.4188  -52.4280   22.8405 C   0  0  0  0  0  0  0  0  0  0  0  0
    1.4937  -52.3970   21.7948 N   0  0  0  0  0  0  0  0  0  0  0  0
    1.3408  -51.5196   20.5878 C   0  0  0  0  0  0  0  0  0  0  0  0
    0.1130  -50.6732   20.4266 N   0  0  0  0  0  0  0  0  0  0  0  0
   -0.9619  -50.7042   21.4723 C   0  0  0  0  0  0  0  0  0  0  0  0
   -0.8090  -51.5816   22.6793 C   0  0  0  0  0  0  0  0  0  0  0  0
   -1.8839  -51.6126   23.7251 C   0  0  0  0  0  0  0  0  0  0  0  0
   -1.7310  -52.4900   24.9320 C   0  0  0  0  0  0  0  0  0  0  0  0
   -2.1898  -49.8578   21.3111 N   0  0  0  0  0  0  0  0  0  0  0  0
   -2.2294  -48.4755   21.8922 C   0  0  0  0  0  0  0  0  0  0  0  0
   -1.1504  -47.4892   21.5558 C   0  0  0  0  0  0  0  0  0  0  0  0
   -1.1901  -46.1069   22.1368 C   0  0  0  0  0  0  0  0  0  0  0  0
   -2.3087  -45.7108   23.0543 C   0  0  0  0  0  0  0  0  0  0  0  0
   -3.3877  -46.6970   23.3907 C   0  0  0  0  0  0  0  0  0  0  0  0
   -3.3481  -48.0794   22.8096 C   0  0  0  0  0  0  0  0  0  0  0  0
   -4.5063  -46.3009   24.3082 C   0  0  0  0  0  0  0  0  0  0  0  0
   -5.6250  -45.9048   25.2257 N   0  0  0  0  0  0  0  0  0  0  0  0
   -0.3503  -54.2139   26.3002 O   0  0  0  0  0  0  0  0  0  0  0  0
    0.4084  -53.7191   27.4959 C   0  0  0  0  0  0  0  0  0  0  0  0
    1.0078  -52.3441   27.4874 C   0  0  0  0  0  0  0  0  0  0  0  0
    2.6806  -51.0741   25.9581 C   0  0  0  0  0  0  0  0  0  0  0  0
    2.4038  -52.1375   26.9791 O   0  0  0  0  0  0  0  0  0  0  0  0
   -2.8060  -52.5210   25.9778 O   0  0  0  0  0  0  0  0  0  0  0  0
   -2.6754  -51.6797   27.2127 C   0  0  0  0  0  0  0  0  0  0  0  0
   -3.3042  -50.3188   27.2631 C   0  0  0  0  0  0  0  0  0  0  0  0
   -3.3672  -49.5692   28.5608 O   0  0  0  0  0  0  0  0  0  0  0  0
   -4.3059  -48.4091   28.7121 C   0  0  0  0  0  0  0  0  0  0  0  0
    1.4165  -53.8877   24.1584 H   0  0  0  0  0  0  0  0  0  0  0  0
    2.0803  -51.4983   19.8683 H   0  0  0  0  0  0  0  0  0  0  0  0
   -2.7286  -51.0302   23.6142 H   0  0  0  0  0  0  0  0  0  0  0  0
   -2.9697  -50.2095   20.8239 H   0  0  0  0  0  0  0  0  0  0  0  0
   -0.3807  -47.7617   20.9246 H   0  0  0  0  0  0  0  0  0  0  0  0
   -0.4478  -45.4284   21.9053 H   0  0  0  0  0  0  0  0  0  0  0  0
   -2.3359  -44.7598   23.4541 H   0  0  0  0  0  0  0  0  0  0  0  0
   -4.0905  -48.7579   23.0410 H   0  0  0  0  0  0  0  0  0  0  0  0
   -0.2650  -53.7574   28.3265 H   0  0  0  0  0  0  0  0  0  0  0  0
    1.2644  -54.3604   27.5267 H   0  0  0  0  0  0  0  0  0  0  0  0
    0.3671  -51.7316   26.8881 H   0  0  0  0  0  0  0  0  0  0  0  0
    1.0866  -52.1038   28.5271 H   0  0  0  0  0  0  0  0  0  0  0  0
    3.7231  -51.0738   25.7171 H   0  0  0  0  0  0  0  0  0  0  0  0
    2.4059  -50.1189   26.3545 H   0  0  0  0  0  0  0  0  0  0  0  0
    2.1103  -51.2710   25.0744 H   0  0  0  0  0  0  0  0  0  0  0  0
   -1.6281  -51.5426   27.3837 H   0  0  0  0  0  0  0  0  0  0  0  0
   -3.2253  -52.2320   27.9458 H   0  0  0  0  0  0  0  0  0  0  0  0
   -4.3122  -50.4315   26.9223 H   0  0  0  0  0  0  0  0  0  0  0  0
   -2.6468  -49.7219   26.6660 H   0  0  0  0  0  0  0  0  0  0  0  0
   -4.2135  -48.0016   29.6972 H   0  0  0  0  0  0  0  0  0  0  0  0
   -5.3111  -48.7410   28.5563 H   0  0  0  0  0  0  0  0  0  0  0  0
   -4.0627  -47.6571   27.9908 H   0  0  0  0  0  0  0  0  0  0  0  0
  1  2  2  0  0  0  0
  2  3  1  0  0  0  0
  2 30  1  0  0  0  0
  3  4  2  0  0  0  0
  4  5  1  0  0  0  0
  5  6  2  0  0  0  0
  5 31  1  0  0  0  0
  6  7  1  0  0  0  0
  7 11  1  0  0  0  0
  7  8  2  0  0  0  0
  8  9  1  0  0  0  0
  8  3  1  0  0  0  0
  9 10  2  0  0  0  0
  9 32  1  0  0  0  0
 10 25  1  0  0  0  0
 10  1  1  0  0  0  0
 11 12  1  0  0  0  0
 11 33  1  0  0  0  0
 12 13  2  0  0  0  0
 13 14  1  0  0  0  0
 13 34  1  0  0  0  0
 14 15  2  0  0  0  0
 14 35  1  0  0  0  0
 15 16  1  0  0  0  0
 15 36  1  0  0  0  0
 16 18  1  0  0  0  0
 16 17  2  0  0  0  0
 17 12  1  0  0  0  0
 17 37  1  0  0  0  0
 18 19  3  0  0  0  0
 20  1  1  0  0  0  0
 21 20  1  0  0  0  0
 21 38  1  0  0  0  0
 21 39  1  0  0  0  0
 22 21  1  0  0  0  0
 22 40  1  0  0  0  0
 22 41  1  0  0  0  0
 23 24  1  0  0  0  0
 23 42  1  0  0  0  0
 23 43  1  0  0  0  0
 23 44  1  0  0  0  0
 24 22  1  0  0  0  0
 25 26  1  0  0  0  0
 26 27  1  0  0  0  0
 26 45  1  0  0  0  0
 26 46  1  0  0  0  0
 27 28  1  0  0  0  0
 27 47  1  0  0  0  0
 27 48  1  0  0  0  0
 28 29  1  0  0  0  0
 29 49  1  0  0  0  0
 29 50  1  0  0  0  0
 29 51  1  0  0  0  0
M  END
>  <minimizedAffinity>
-6.28112

$$$$

 OpenBabel09092411003D

 37 39  0  0  0  0  0  0  0  0999 V2000
    0.7591  -52.6726   21.4758 C   0  0  0  0  0  0  0  0  0  0  0  0
    1.7863  -53.7469   21.2745 N   0  0  0  0  0  0  0  0  0  0  0  0
    2.3037  -53.6364   19.8709 N   0  0  0  0  0  0  0  0  0  0  0  0
    1.5963  -52.4937   19.2047 C   0  0  0  0  0  0  0  0  0  0  0  0
    0.6417  -51.8980   20.1966 O   0  0  0  0  0  0  0  0  0  0  0  0
    1.8066  -52.0284   17.7943 C   0  0  0  0  0  0  0  0  0  0  0  0
    0.8428  -51.0621   17.1718 C   0  0  0  0  0  0  0  0  0  0  0  0
    1.0531  -50.5968   15.7614 C   0  0  0  0  0  0  0  0  0  0  0  0
    2.2271  -51.0978   14.9736 C   0  0  0  0  0  0  0  0  0  0  0  0
    2.4374  -50.6325   13.5631 F   0  0  0  0  0  0  0  0  0  0  0  0
    3.1908  -52.0640   15.5960 C   0  0  0  0  0  0  0  0  0  0  0  0
    2.9805  -52.5294   17.0064 C   0  0  0  0  0  0  0  0  0  0  0  0
   -1.5625  -51.9073   25.2540 N   0  0  0  0  0  0  0  0  0  0  0  0
   -2.1069  -51.4495   23.9334 C   0  0  0  0  0  0  0  0  0  0  0  0
   -1.3330  -51.7045   22.6740 C   0  0  0  0  0  0  0  0  0  0  0  0
   -0.0147  -52.4175   22.7352 N   0  0  0  0  0  0  0  0  0  0  0  0
    0.5297  -52.8753   24.0558 C   0  0  0  0  0  0  0  0  0  0  0  0
   -0.2442  -52.6203   25.3151 C   0  0  0  0  0  0  0  0  0  0  0  0
   -3.1103  -51.3972   27.7727 C   0  0  0  0  0  0  0  0  0  0  0  0
   -2.3364  -51.6522   26.5134 S   0  0  0  0  0  0  0  0  0  0  0  0
   -1.1845  -50.8630   27.0613 O   0  0  0  0  0  0  0  0  0  0  0  0
   -3.4883  -52.4415   25.9654 O   0  0  0  0  0  0  0  0  0  0  0  0
    0.0351  -50.7175   17.7139 H   0  0  0  0  0  0  0  0  0  0  0  0
    0.3901  -49.9320   15.3331 H   0  0  0  0  0  0  0  0  0  0  0  0
    3.9985  -52.4086   15.0539 H   0  0  0  0  0  0  0  0  0  0  0  0
    3.6435  -53.1943   17.4346 H   0  0  0  0  0  0  0  0  0  0  0  0
   -2.2404  -50.3903   24.0048 H   0  0  0  0  0  0  0  0  0  0  0  0
   -2.9846  -52.0486   23.8082 H   0  0  0  0  0  0  0  0  0  0  0  0
   -1.1476  -50.7503   22.2268 H   0  0  0  0  0  0  0  0  0  0  0  0
   -1.9570  -52.3870   22.1358 H   0  0  0  0  0  0  0  0  0  0  0  0
    1.4822  -52.4032   24.1776 H   0  0  0  0  0  0  0  0  0  0  0  0
    0.5166  -53.9418   23.9708 H   0  0  0  0  0  0  0  0  0  0  0  0
    0.3896  -52.0433   25.9556 H   0  0  0  0  0  0  0  0  0  0  0  0
   -0.5112  -53.6032   25.6429 H   0  0  0  0  0  0  0  0  0  0  0  0
   -2.7637  -50.4927   28.2274 H   0  0  0  0  0  0  0  0  0  0  0  0
   -2.9690  -52.2136   28.4497 H   0  0  0  0  0  0  0  0  0  0  0  0
   -4.1503  -51.3033   27.5394 H   0  0  0  0  0  0  0  0  0  0  0  0
  1  2  2  0  0  0  0
  2  3  1  0  0  0  0
  3  4  2  0  0  0  0
  4  6  1  0  0  0  0
  4  5  1  0  0  0  0
  5  1  1  0  0  0  0
  6  7  2  0  0  0  0
  7  8  1  0  0  0  0
  7 23  1  0  0  0  0
  8  9  2  0  0  0  0
  8 24  1  0  0  0  0
  9 10  1  0  0  0  0
  9 11  1  0  0  0  0
 11 12  2  0  0  0  0
 11 25  1  0  0  0  0
 12  6  1  0  0  0  0
 12 26  1  0  0  0  0
 13 14  1  0  0  0  0
 14 15  1  0  0  0  0
 14 27  1  0  0  0  0
 14 28  1  0  0  0  0
 15 16  1  0  0  0  0
 15 29  1  0  0  0  0
 15 30  1  0  0  0  0
 16  1  1  0  0  0  0
 16 17  1  0  0  0  0
 17 18  1  0  0  0  0
 17 31  1  0  0  0  0
 17 32  1  0  0  0  0
 18 13  1  0  0  0  0
 18 33  1  0  0  0  0
 18 34  1  0  0  0  0
 19 20  1  0  0  0  0
 19 35  1  0  0  0  0
 19 36  1  0  0  0  0
 19 37  1  0  0  0  0
 20 21  2  0  0  0  0
 20 22  2  0  0  0  0
 20 13  1  0  0  0  0
M  END
>  <minimizedAffinity>
-7.54956

$$$$

 OpenBabel09092411003D

 35 37  0  0  0  0  0  0  0  0999 V2000
   -1.3264  -52.4093   25.0134 C   0  0  0  0  0  0  0  0  0  0  0  0
   -0.3634  -52.6784   23.8954 C   0  0  0  0  0  0  0  0  0  0  0  0
   -0.6552  -52.1688   22.5151 C   0  0  0  0  0  0  0  0  0  0  0  0
   -1.9101  -51.3900   22.2530 C   0  0  0  0  0  0  0  0  0  0  0  0
   -2.8731  -51.1209   23.3710 C   0  0  0  0  0  0  0  0  0  0  0  0
   -2.5812  -51.6305   24.7513 C   0  0  0  0  0  0  0  0  0  0  0  0
   -3.5443  -51.3613   25.8694 Cl  0  0  0  0  0  0  0  0  0  0  0  0
    0.3078  -52.4379   21.3970 C   0  0  0  0  0  0  0  0  0  0  0  0
    1.4686  -53.3869   21.4424 N   0  0  0  0  0  0  0  0  0  0  0  0
    2.1573  -53.3409   20.1107 N   0  0  0  0  0  0  0  0  0  0  0  0
    1.4223  -52.3633   19.2422 C   0  0  0  0  0  0  0  0  0  0  0  0
    0.2792  -51.8053   20.0372 O   0  0  0  0  0  0  0  0  0  0  0  0
    1.7693  -52.0065   17.8272 C   0  0  0  0  0  0  0  0  0  0  0  0
    0.8819  -51.0819   17.0477 C   0  0  0  0  0  0  0  0  0  0  0  0
    1.2290  -50.7251   15.6327 C   0  0  0  0  0  0  0  0  0  0  0  0
    2.4634  -51.2929   14.9972 C   0  0  0  0  0  0  0  0  0  0  0  0
    2.8104  -50.9360   13.5822 F   0  0  0  0  0  0  0  0  0  0  0  0
    3.3508  -52.2175   15.7767 C   0  0  0  0  0  0  0  0  0  0  0  0
    3.0037  -52.5743   17.1917 C   0  0  0  0  0  0  0  0  0  0  0  0
   -1.0345  -52.9189   26.3937 N   0  0  0  0  0  0  0  0  0  0  0  0
    1.4772  -52.0789   27.8029 C   0  0  0  0  0  0  0  0  0  0  0  0
    0.2213  -52.4989   27.0983 S   0  0  0  0  0  0  0  0  0  0  0  0
    0.7622  -53.8916   26.9645 O   0  0  0  0  0  0  0  0  0  0  0  0
   -0.3196  -51.1063   27.2321 O   0  0  0  0  0  0  0  0  0  0  0  0
    0.5000  -53.2142   24.0758 H   0  0  0  0  0  0  0  0  0  0  0  0
   -2.1109  -51.0393   21.3034 H   0  0  0  0  0  0  0  0  0  0  0  0
   -3.7365  -50.5852   23.1906 H   0  0  0  0  0  0  0  0  0  0  0  0
    0.0326  -50.6913   17.4849 H   0  0  0  0  0  0  0  0  0  0  0  0
    0.6185  -50.0889   15.0964 H   0  0  0  0  0  0  0  0  0  0  0  0
    4.2001  -52.6081   15.3395 H   0  0  0  0  0  0  0  0  0  0  0  0
    3.6142  -53.2105   17.7280 H   0  0  0  0  0  0  0  0  0  0  0  0
   -1.6672  -53.5290   26.8372 H   0  0  0  0  0  0  0  0  0  0  0  0
    1.2242  -51.5466   28.6959 H   0  0  0  0  0  0  0  0  0  0  0  0
    2.0516  -51.4448   27.1604 H   0  0  0  0  0  0  0  0  0  0  0  0
    2.0516  -52.9457   28.0550 H   0  0  0  0  0  0  0  0  0  0  0  0
  1  2  2  0  0  0  0
  2  3  1  0  0  0  0
  2 25  1  0  0  0  0
  3  8  1  0  0  0  0
  3  4  2  0  0  0  0
  4  5  1  0  0  0  0
  4 26  1  0  0  0  0
  5  6  2  0  0  0  0
  5 27  1  0  0  0  0
  6  7  1  0  0  0  0
  6  1  1  0  0  0  0
  8  9  2  0  0  0  0
  9 10  1  0  0  0  0
 10 11  2  0  0  0  0
 11 13  1  0  0  0  0
 11 12  1  0  0  0  0
 12  8  1  0  0  0  0
 13 14  2  0  0  0  0
 14 15  1  0  0  0  0
 14 28  1  0  0  0  0
 15 16  2  0  0  0  0
 15 29  1  0  0  0  0
 16 17  1  0  0  0  0
 16 18  1  0  0  0  0
 18 19  2  0  0  0  0
 18 30  1  0  0  0  0
 19 13  1  0  0  0  0
 19 31  1  0  0  0  0
 20  1  1  0  0  0  0
 20 32  1  0  0  0  0
 21 22  1  0  0  0  0
 21 33  1  0  0  0  0
 21 34  1  0  0  0  0
 21 35  1  0  0  0  0
 22 23  2  0  0  0  0
 22 24  2  0  0  0  0
 22 20  1  0  0  0  0
M  END
>  <minimizedAffinity>
-7.75517

$$$$

 OpenBabel09092411003D

 37 39  0  0  0  0  0  0  0  0999 V2000
    1.7300  -54.1778   21.9674 N   0  0  0  0  0  0  0  0  0  0  0  0
    0.0150  -52.6753   25.8470 C   0  0  0  0  0  0  0  0  0  0  0  0
    0.2517  -51.7227   24.7128 C   0  0  0  0  0  0  0  0  0  0  0  0
    0.8234  -52.2235   23.4196 C   0  0  0  0  0  0  0  0  0  0  0  0
    1.1583  -53.6770   23.2606 C   0  0  0  0  0  0  0  0  0  0  0  0
    0.9216  -54.6295   24.3948 C   0  0  0  0  0  0  0  0  0  0  0  0
    0.3500  -54.1287   25.6880 C   0  0  0  0  0  0  0  0  0  0  0  0
    0.1133  -55.0814   26.8223 Cl  0  0  0  0  0  0  0  0  0  0  0  0
   -0.5566  -52.1744   27.1402 N   0  0  0  0  0  0  0  0  0  0  0  0
   -3.3771  -51.1571   27.2393 C   0  0  0  0  0  0  0  0  0  0  0  0
   -1.9668  -51.6658   27.1898 S   0  0  0  0  0  0  0  0  0  0  0  0
   -2.4576  -53.0541   27.4753 O   0  0  0  0  0  0  0  0  0  0  0  0
   -1.4761  -50.2774   26.9043 O   0  0  0  0  0  0  0  0  0  0  0  0
    1.4260  -53.4609   20.6854 C   0  0  0  0  0  0  0  0  0  0  0  0
    0.1398  -52.7672   20.3467 N   0  0  0  0  0  0  0  0  0  0  0  0
    0.2737  -52.1893   18.9689 N   0  0  0  0  0  0  0  0  0  0  0  0
    1.6426  -52.5259   18.4561 C   0  0  0  0  0  0  0  0  0  0  0  0
    2.3547  -53.3117   19.5169 O   0  0  0  0  0  0  0  0  0  0  0  0
    2.2012  -52.1437   17.1176 C   0  0  0  0  0  0  0  0  0  0  0  0
    1.3778  -51.3263   16.1669 C   0  0  0  0  0  0  0  0  0  0  0  0
    1.9365  -50.9441   14.8283 C   0  0  0  0  0  0  0  0  0  0  0  0
    3.3186  -51.3793   14.4404 C   0  0  0  0  0  0  0  0  0  0  0  0
    4.1420  -52.1968   15.3911 C   0  0  0  0  0  0  0  0  0  0  0  0
    5.5241  -52.6320   15.0032 F   0  0  0  0  0  0  0  0  0  0  0  0
    3.5833  -52.5789   16.7297 C   0  0  0  0  0  0  0  0  0  0  0  0
    2.3048  -54.9771   21.9601 H   0  0  0  0  0  0  0  0  0  0  0  0
    0.0212  -50.7227   24.8222 H   0  0  0  0  0  0  0  0  0  0  0  0
    0.9863  -51.5681   22.6393 H   0  0  0  0  0  0  0  0  0  0  0  0
    1.1520  -55.6295   24.2854 H   0  0  0  0  0  0  0  0  0  0  0  0
   -0.0062  -52.1795   27.9564 H   0  0  0  0  0  0  0  0  0  0  0  0
   -3.8564  -51.5204   28.1243 H   0  0  0  0  0  0  0  0  0  0  0  0
   -3.9107  -51.5009   26.3779 H   0  0  0  0  0  0  0  0  0  0  0  0
   -3.3701  -50.0872   27.2510 H   0  0  0  0  0  0  0  0  0  0  0  0
    0.4269  -51.0269   16.4338 H   0  0  0  0  0  0  0  0  0  0  0  0
    1.3700  -50.3817   14.1742 H   0  0  0  0  0  0  0  0  0  0  0  0
    3.7030  -51.1163   13.5195 H   0  0  0  0  0  0  0  0  0  0  0  0
    4.1498  -53.1412   17.3838 H   0  0  0  0  0  0  0  0  0  0  0  0
  1 14  1  0  0  0  0
  1 26  1  0  0  0  0
  2  3  2  0  0  0  0
  3  4  1  0  0  0  0
  3 27  1  0  0  0  0
  4  5  2  0  0  0  0
  4 28  1  0  0  0  0
  5  1  1  0  0  0  0
  5  6  1  0  0  0  0
  6  7  2  0  0  0  0
  6 29  1  0  0  0  0
  7  8  1  0  0  0  0
  7  2  1  0  0  0  0
  9  2  1  0  0  0  0
  9 30  1  0  0  0  0
 10 11  1  0  0  0  0
 10 31  1  0  0  0  0
 10 32  1  0  0  0  0
 10 33  1  0  0  0  0
 11 12  2  0  0  0  0
 11 13  2  0  0  0  0
 11  9  1  0  0  0  0
 14 15  2  0  0  0  0
 15 16  1  0  0  0  0
 16 17  2  0  0  0  0
 17 19  1  0  0  0  0
 17 18  1  0  0  0  0
 18 14  1  0  0  0  0
 19 20  2  0  0  0  0
 20 21  1  0  0  0  0
 20 34  1  0  0  0  0
 21 22  2  0  0  0  0
 21 35  1  0  0  0  0
 22 23  1  0  0  0  0
 22 36  1  0  0  0  0
 23 24  1  0  0  0  0
 23 25  2  0  0  0  0
 25 19  1  0  0  0  0
 25 37  1  0  0  0  0
M  END
>  <minimizedAffinity>
-7.94299

$$$$

 OpenBabel09092411003D

 40 42  0  0  0  0  0  0  0  0999 V2000
    0.8334  -52.6734   22.2375 C   0  0  0  0  0  0  0  0  0  0  0  0
    0.6750  -51.2164   21.9185 C   0  0  0  0  0  0  0  0  0  0  0  0
    0.8343  -50.7362   20.5064 C   0  0  0  0  0  0  0  0  0  0  0  0
    1.1519  -51.7132   19.4133 C   0  0  0  0  0  0  0  0  0  0  0  0
    1.3103  -53.1702   19.7324 C   0  0  0  0  0  0  0  0  0  0  0  0
    1.1510  -53.6503   21.1445 C   0  0  0  0  0  0  0  0  0  0  0  0
    0.1347  -53.2301   26.0148 C   0  0  0  0  0  0  0  0  0  0  0  0
    0.7235  -54.5551   25.6306 N   0  0  0  0  0  0  0  0  0  0  0  0
    1.0569  -54.5079   24.1689 O   0  0  0  0  0  0  0  0  0  0  0  0
    0.6742  -53.1536   23.6497 C   0  0  0  0  0  0  0  0  0  0  0  0
    0.1042  -52.3639   24.7905 N   0  0  0  0  0  0  0  0  0  0  0  0
   -0.3402  -52.8397   27.3831 C   0  0  0  0  0  0  0  0  0  0  0  0
   -3.0014  -51.4966   27.7206 C   0  0  0  0  0  0  0  0  0  0  0  0
   -1.6708  -52.1682   27.5518 S   0  0  0  0  0  0  0  0  0  0  0  0
   -1.0596  -50.8573   27.1542 O   0  0  0  0  0  0  0  0  0  0  0  0
   -2.2819  -53.4790   27.9495 O   0  0  0  0  0  0  0  0  0  0  0  0
    1.3112  -51.2330   18.0012 O   0  0  0  0  0  0  0  0  0  0  0  0
    1.5559  -52.2183   16.8971 C   0  0  0  0  0  0  0  0  0  0  0  0
    2.6033  -51.9382   15.8603 C   0  0  0  0  0  0  0  0  0  0  0  0
    2.2580  -51.1301   14.6447 C   0  0  0  0  0  0  0  0  0  0  0  0
    3.3053  -50.8500   13.6081 C   0  0  0  0  0  0  0  0  0  0  0  0
    4.6979  -51.3780   13.7870 C   0  0  0  0  0  0  0  0  0  0  0  0
    5.0431  -52.1862   15.0026 C   0  0  0  0  0  0  0  0  0  0  0  0
    6.4356  -52.7142   15.1816 F   0  0  0  0  0  0  0  0  0  0  0  0
    3.9958  -52.4662   16.0393 C   0  0  0  0  0  0  0  0  0  0  0  0
    0.4564  -50.5443   22.6705 H   0  0  0  0  0  0  0  0  0  0  0  0
    0.7254  -49.7337   20.2869 H   0  0  0  0  0  0  0  0  0  0  0  0
    1.5289  -53.8423   18.9804 H   0  0  0  0  0  0  0  0  0  0  0  0
    1.2599  -54.6528   21.3640 H   0  0  0  0  0  0  0  0  0  0  0  0
   -0.3702  -53.7358   27.9670 H   0  0  0  0  0  0  0  0  0  0  0  0
    0.3564  -52.0832   27.6787 H   0  0  0  0  0  0  0  0  0  0  0  0
   -3.7039  -51.9189   27.0328 H   0  0  0  0  0  0  0  0  0  0  0  0
   -2.8992  -50.4491   27.5279 H   0  0  0  0  0  0  0  0  0  0  0  0
   -3.3503  -51.6427   28.7215 H   0  0  0  0  0  0  0  0  0  0  0  0
    0.6287  -52.3347   16.3759 H   0  0  0  0  0  0  0  0  0  0  0  0
    1.9417  -53.0735   17.4116 H   0  0  0  0  0  0  0  0  0  0  0  0
    1.2999  -50.7669   14.5216 H   0  0  0  0  0  0  0  0  0  0  0  0
    3.0678  -50.2940   12.7718 H   0  0  0  0  0  0  0  0  0  0  0  0
    5.4185  -51.1852   13.0738 H   0  0  0  0  0  0  0  0  0  0  0  0
    4.2333  -53.0221   16.8757 H   0  0  0  0  0  0  0  0  0  0  0  0
  1  2  2  0  0  0  0
  2  3  1  0  0  0  0
  2 26  1  0  0  0  0
  3  4  2  0  0  0  0
  3 27  1  0  0  0  0
  4 17  1  0  0  0  0
  4  5  1  0  0  0  0
  5  6  2  0  0  0  0
  5 28  1  0  0  0  0
  6  1  1  0  0  0  0
  6 29  1  0  0  0  0
  7  8  2  0  0  0  0
  8  9  1  0  0  0  0
  9 10  1  0  0  0  0
 10  1  1  0  0  0  0
 10 11  2  0  0  0  0
 11  7  1  0  0  0  0
 12  7  1  0  0  0  0
 12 30  1  0  0  0  0
 12 31  1  0  0  0  0
 13 14  1  0  0  0  0
 13 32  1  0  0  0  0
 13 33  1  0  0  0  0
 13 34  1  0  0  0  0
 14 15  2  0  0  0  0
 14 16  2  0  0  0  0
 14 12  1  0  0  0  0
 17 18  1  0  0  0  0
 18 19  1  0  0  0  0
 18 35  1  0  0  0  0
 18 36  1  0  0  0  0
 19 20  2  0  0  0  0
 20 21  1  0  0  0  0
 20 37  1  0  0  0  0
 21 22  2  0  0  0  0
 21 38  1  0  0  0  0
 22 23  1  0  0  0  0
 22 39  1  0  0  0  0
 23 24  1  0  0  0  0
 23 25  2  0  0  0  0
 25 19  1  0  0  0  0
 25 40  1  0  0  0  0
M  END
>  <minimizedAffinity>
-8.24343

$$$$

 OpenBabel09092411003D

 44 46  0  0  0  0  0  0  0  0999 V2000
    0.8493  -51.9001   19.5478 C   0  0  0  0  0  0  0  0  0  0  0  0
    0.3802  -50.6716   20.2694 C   0  0  0  0  0  0  0  0  0  0  0  0
    0.2706  -50.6763   21.7653 C   0  0  0  0  0  0  0  0  0  0  0  0
    0.6300  -51.9096   22.5398 C   0  0  0  0  0  0  0  0  0  0  0  0
    1.0991  -53.1381   21.8183 C   0  0  0  0  0  0  0  0  0  0  0  0
    1.4586  -54.3714   22.5927 Cl  0  0  0  0  0  0  0  0  0  0  0  0
    1.2088  -53.1333   20.3223 C   0  0  0  0  0  0  0  0  0  0  0  0
    0.5204  -51.9143   24.0358 C   0  0  0  0  0  0  0  0  0  0  0  0
    1.4657  -51.2483   24.9912 C   0  0  0  0  0  0  0  0  0  0  0  0
    0.9758  -51.5082   26.3849 C   0  0  0  0  0  0  0  0  0  0  0  0
   -0.2723  -52.3349   26.2909 C   0  0  0  0  0  0  0  0  0  0  0  0
   -0.5537  -52.5858   24.8390 O   0  0  0  0  0  0  0  0  0  0  0  0
   -1.0946  -52.8246   27.4458 C   0  0  0  0  0  0  0  0  0  0  0  0
   -2.5906  -52.7263   27.3965 O   0  0  0  0  0  0  0  0  0  0  0  0
   -3.2435  -51.5657   26.7062 C   0  0  0  0  0  0  0  0  0  0  0  0
   -3.1630  -50.1937   27.3072 C   0  0  0  0  0  0  0  0  0  0  0  0
   -3.8159  -49.0330   26.6168 C   0  0  0  0  0  0  0  0  0  0  0  0
   -4.5493  -49.2443   25.3255 C   0  0  0  0  0  0  0  0  0  0  0  0
   -5.2022  -48.0836   24.6353 F   0  0  0  0  0  0  0  0  0  0  0  0
   -4.6299  -50.6163   24.7245 C   0  0  0  0  0  0  0  0  0  0  0  0
   -3.9769  -51.7770   25.4149 C   0  0  0  0  0  0  0  0  0  0  0  0
    0.9589  -51.8954   18.0519 C   0  0  0  0  0  0  0  0  0  0  0  0
    2.1386  -52.5377   17.3843 N   0  0  0  0  0  0  0  0  0  0  0  0
    2.9882  -51.6393   14.6510 C   0  0  0  0  0  0  0  0  0  0  0  0
    2.5634  -52.0885   16.0176 S   0  0  0  0  0  0  0  0  0  0  0  0
    1.1391  -52.1572   15.5522 O   0  0  0  0  0  0  0  0  0  0  0  0
    3.9877  -52.0197   16.4830 O   0  0  0  0  0  0  0  0  0  0  0  0
    0.1328  -49.8231   19.7366 H   0  0  0  0  0  0  0  0  0  0  0  0
   -0.0521  -49.8310   22.2617 H   0  0  0  0  0  0  0  0  0  0  0  0
    1.5316  -53.9785   19.8259 H   0  0  0  0  0  0  0  0  0  0  0  0
    2.3057  -50.7064   24.7347 H   0  0  0  0  0  0  0  0  0  0  0  0
    1.4195  -51.1765   27.2556 H   0  0  0  0  0  0  0  0  0  0  0  0
   -0.7771  -52.2739   28.3065 H   0  0  0  0  0  0  0  0  0  0  0  0
   -0.9173  -53.8798   27.4440 H   0  0  0  0  0  0  0  0  0  0  0  0
   -2.6585  -50.0483   28.1956 H   0  0  0  0  0  0  0  0  0  0  0  0
   -3.7605  -48.0891   27.0303 H   0  0  0  0  0  0  0  0  0  0  0  0
   -5.1345  -50.7617   23.8361 H   0  0  0  0  0  0  0  0  0  0  0  0
   -4.0322  -52.7209   25.0014 H   0  0  0  0  0  0  0  0  0  0  0  0
    0.0859  -52.3874   17.6767 H   0  0  0  0  0  0  0  0  0  0  0  0
    1.0781  -50.8583   17.8173 H   0  0  0  0  0  0  0  0  0  0  0  0
    2.9383  -52.3983   18.0019 H   0  0  0  0  0  0  0  0  0  0  0  0
    2.4577  -52.2003   13.9102 H   0  0  0  0  0  0  0  0  0  0  0  0
    4.0397  -51.7989   14.5339 H   0  0  0  0  0  0  0  0  0  0  0  0
    2.7702  -50.5983   14.5339 H   0  0  0  0  0  0  0  0  0  0  0  0
  1  2  2  0  0  0  0
  2  3  1  0  0  0  0
  2 28  1  0  0  0  0
  3  4  2  0  0  0  0
  3 29  1  0  0  0  0
  4  8  1  0  0  0  0
  4  5  1  0  0  0  0
  5  6  1  0  0  0  0
  5  7  2  0  0  0  0
  7  1  1  0  0  0  0
  7 30  1  0  0  0  0
  8  9  2  0  0  0  0
  9 10  1  0  0  0  0
  9 31  1  0  0  0  0
 10 11  2  0  0  0  0
 10 32  1  0  0  0  0
 11 13  1  0  0  0  0
 11 12  1  0  0  0  0
 12  8  1  0  0  0  0
 13 14  1  0  0  0  0
 13 33  1  0  0  0  0
 13 34  1  0  0  0  0
 14 15  1  0  0  0  0
 15 16  2  0  0  0  0
 16 17  1  0  0  0  0
 16 35  1  0  0  0  0
 17 18  2  0  0  0  0
 17 36  1  0  0  0  0
 18 19  1  0  0  0  0
 18 20  1  0  0  0  0
 20 21  2  0  0  0  0
 20 37  1  0  0  0  0
 21 15  1  0  0  0  0
 21 38  1  0  0  0  0
 22  1  1  0  0  0  0
 22 39  1  0  0  0  0
 22 40  1  0  0  0  0
 23 22  1  0  0  0  0
 23 41  1  0  0  0  0
 24 25  1  0  0  0  0
 24 42  1  0  0  0  0
 24 43  1  0  0  0  0
 24 44  1  0  0  0  0
 25 26  2  0  0  0  0
 25 27  2  0  0  0  0
 25 23  1  0  0  0  0
M  END
>  <minimizedAffinity>
-7.96204

$$$$

 OpenBabel09092411003D

 48 50  0  0  0  0  0  0  0  0999 V2000
    0.3377  -52.3861   26.2501 C   0  0  0  0  0  0  0  0  0  0  0  0
    0.3371  -53.7211   25.5661 C   0  0  0  0  0  0  0  0  0  0  0  0
    0.5314  -53.8031   24.0810 C   0  0  0  0  0  0  0  0  0  0  0  0
    0.7263  -52.5501   23.2798 N   0  0  0  0  0  0  0  0  0  0  0  0
    0.9205  -52.6321   21.7947 C   0  0  0  0  0  0  0  0  0  0  0  0
    0.9199  -53.9670   21.1108 O   0  0  0  0  0  0  0  0  0  0  0  0
    1.1154  -51.3791   20.9935 N   0  0  0  0  0  0  0  0  0  0  0  0
    0.7269  -51.2151   23.9638 C   0  0  0  0  0  0  0  0  0  0  0  0
    0.5326  -51.1331   25.4489 C   0  0  0  0  0  0  0  0  0  0  0  0
    1.3097  -51.4610   19.5084 C   0  0  0  0  0  0  0  0  0  0  0  0
    2.2802  -52.4492   18.9324 C   0  0  0  0  0  0  0  0  0  0  0  0
    2.4745  -52.5312   17.4473 C   0  0  0  0  0  0  0  0  0  0  0  0
    1.6982  -51.6250   16.5382 C   0  0  0  0  0  0  0  0  0  0  0  0
    0.7278  -50.6369   17.1143 C   0  0  0  0  0  0  0  0  0  0  0  0
   -0.0484  -49.7308   16.2052 Cl  0  0  0  0  0  0  0  0  0  0  0  0
    0.5335  -50.5550   18.5994 C   0  0  0  0  0  0  0  0  0  0  0  0
    1.8925  -51.7070   15.0531 O   0  0  0  0  0  0  0  0  0  0  0  0
    3.0925  -51.0698   14.4174 C   0  0  0  0  0  0  0  0  0  0  0  0
    4.2218  -51.9243   13.9230 C   0  0  0  0  0  0  0  0  0  0  0  0
    5.1923  -52.5223   14.8979 C   0  0  0  0  0  0  0  0  0  0  0  0
    6.3216  -53.3769   14.4035 C   0  0  0  0  0  0  0  0  0  0  0  0
    6.4804  -53.6334   12.9342 C   0  0  0  0  0  0  0  0  0  0  0  0
    5.5099  -53.0354   11.9592 C   0  0  0  0  0  0  0  0  0  0  0  0
    4.3806  -52.1808   12.4536 N   0  0  0  0  0  0  0  0  0  0  0  0
   -1.1497  -52.7533   28.3483 N   0  0  0  0  0  0  0  0  0  0  0  0
    0.1435  -52.3041   27.7352 C   0  0  0  0  0  0  0  0  0  0  0  0
    1.2423  -51.7730   28.6071 O   0  0  0  0  0  0  0  0  0  0  0  0
   -0.4209  -52.7445   26.9142 H   0  0  0  0  0  0  0  0  0  0  0  0
   -0.6070  -54.1772   25.7797 H   0  0  0  0  0  0  0  0  0  0  0  0
    1.2127  -54.1972   25.9553 H   0  0  0  0  0  0  0  0  0  0  0  0
   -0.3326  -54.2929   23.6830 H   0  0  0  0  0  0  0  0  0  0  0  0
    1.4707  -54.3061   23.9833 H   0  0  0  0  0  0  0  0  0  0  0  0
    1.1158  -50.5029   21.4424 H   0  0  0  0  0  0  0  0  0  0  0  0
   -0.0566  -50.6390   23.5175 H   0  0  0  0  0  0  0  0  0  0  0  0
    1.7304  -50.8695   23.8276 H   0  0  0  0  0  0  0  0  0  0  0  0
   -0.3309  -50.5233   25.6142 H   0  0  0  0  0  0  0  0  0  0  0  0
    1.4723  -50.7606   25.7997 H   0  0  0  0  0  0  0  0  0  0  0  0
    2.8142  -53.0726   19.5579 H   0  0  0  0  0  0  0  0  0  0  0  0
    3.1422  -53.2110   17.0510 H   0  0  0  0  0  0  0  0  0  0  0  0
   -0.1343  -49.8753   18.9957 H   0  0  0  0  0  0  0  0  0  0  0  0
    3.5064  -50.3996   15.1416 H   0  0  0  0  0  0  0  0  0  0  0  0
    2.6972  -50.6414   13.5201 H   0  0  0  0  0  0  0  0  0  0  0  0
    5.0831  -52.3458   15.9088 H   0  0  0  0  0  0  0  0  0  0  0  0
    6.9893  -53.7884   15.0743 H   0  0  0  0  0  0  0  0  0  0  0  0
    7.2574  -54.2213   12.5941 H   0  0  0  0  0  0  0  0  0  0  0  0
    5.6192  -53.2119   10.9483 H   0  0  0  0  0  0  0  0  0  0  0  0
   -1.2772  -52.6995   29.3230 H   0  0  0  0  0  0  0  0  0  0  0  0
   -1.8709  -53.1019   27.7760 H   0  0  0  0  0  0  0  0  0  0  0  0
  1  2  1  0  0  0  0
  1 28  1  0  0  0  0
  2  3  1  0  0  0  0
  2 29  1  0  0  0  0
  2 30  1  0  0  0  0
  3  4  1  0  0  0  0
  3 31  1  0  0  0  0
  3 32  1  0  0  0  0
  4  5  1  0  0  0  0
  4  8  1  0  0  0  0
  5  6  2  0  0  0  0
  5  7  1  0  0  0  0
  7 10  1  0  0  0  0
  7 33  1  0  0  0  0
  8  9  1  0  0  0  0
  8 34  1  0  0  0  0
  8 35  1  0  0  0  0
  9  1  1  0  0  0  0
  9 36  1  0  0  0  0
  9 37  1  0  0  0  0
 10 11  2  0  0  0  0
 11 12  1  0  0  0  0
 11 38  1  0  0  0  0
 12 13  2  0  0  0  0
 12 39  1  0  0  0  0
 13 17  1  0  0  0  0
 13 14  1  0  0  0  0
 14 15  1  0  0  0  0
 14 16  2  0  0  0  0
 16 10  1  0  0  0  0
 16 40  1  0  0  0  0
 17 18  1  0  0  0  0
 18 19  1  0  0  0  0
 18 41  1  0  0  0  0
 18 42  1  0  0  0  0
 19 20  2  0  0  0  0
 20 21  1  0  0  0  0
 20 43  1  0  0  0  0
 21 22  2  0  0  0  0
 21 44  1  0  0  0  0
 22 23  1  0  0  0  0
 22 45  1  0  0  0  0
 23 24  2  0  0  0  0
 23 46  1  0  0  0  0
 24 19  1  0  0  0  0
 25 26  1  0  0  0  0
 25 47  1  0  0  0  0
 25 48  1  0  0  0  0
 26 27  2  0  0  0  0
 26  1  1  0  0  0  0
M  END
>  <minimizedAffinity>
-7.62312

$$$$

 OpenBabel09092411003D

 46 49  0  0  0  0  0  0  0  0999 V2000
    1.0065  -52.1639   19.2568 C   0  0  0  0  0  0  0  0  0  0  0  0
    1.6152  -51.5713   18.0204 C   0  0  0  0  0  0  0  0  0  0  0  0
    0.7558  -50.8193   17.0478 C   0  0  0  0  0  0  0  0  0  0  0  0
   -0.7123  -50.6599   17.3116 C   0  0  0  0  0  0  0  0  0  0  0  0
   -1.5716  -49.9079   16.3390 Cl  0  0  0  0  0  0  0  0  0  0  0  0
   -1.3209  -51.2525   18.5478 C   0  0  0  0  0  0  0  0  0  0  0  0
   -0.4615  -52.0045   19.5204 N   0  0  0  0  0  0  0  0  0  0  0  0
    1.8658  -52.9160   20.2294 N   0  0  0  0  0  0  0  0  0  0  0  0
    0.2668  -54.6337   26.6902 C   0  0  0  0  0  0  0  0  0  0  0  0
    0.2390  -53.3068   25.9914 N   0  0  0  0  0  0  0  0  0  0  0  0
   -0.1956  -52.0775   26.7330 C   0  0  0  0  0  0  0  0  0  0  0  0
   -0.6023  -52.1752   28.1736 O   0  0  0  0  0  0  0  0  0  0  0  0
   -0.2234  -50.7505   26.0342 C   0  0  0  0  0  0  0  0  0  0  0  0
    0.1833  -50.6528   24.5937 C   0  0  0  0  0  0  0  0  0  0  0  0
    0.6179  -51.8821   23.8520 C   0  0  0  0  0  0  0  0  0  0  0  0
    1.0246  -51.7844   22.4115 C   0  0  0  0  0  0  0  0  0  0  0  0
    1.4591  -53.0136   21.6699 C   0  0  0  0  0  0  0  0  0  0  0  0
    1.4869  -54.3406   22.3687 C   0  0  0  0  0  0  0  0  0  0  0  0
    1.0802  -54.4383   23.8092 N   0  0  0  0  0  0  0  0  0  0  0  0
    0.6457  -53.2091   24.5508 C   0  0  0  0  0  0  0  0  0  0  0  0
   -2.7889  -51.0930   18.8115 O   0  0  0  0  0  0  0  0  0  0  0  0
   -3.2654  -50.0871   19.8170 C   0  0  0  0  0  0  0  0  0  0  0  0
   -3.6968  -50.5369   21.1814 C   0  0  0  0  0  0  0  0  0  0  0  0
   -2.7107  -51.1939   22.1011 C   0  0  0  0  0  0  0  0  0  0  0  0
   -3.1422  -51.6437   23.4656 C   0  0  0  0  0  0  0  0  0  0  0  0
   -4.5597  -51.4366   23.9101 C   0  0  0  0  0  0  0  0  0  0  0  0
   -5.5458  -50.7796   22.9904 C   0  0  0  0  0  0  0  0  0  0  0  0
   -5.1144  -50.3297   21.6260 N   0  0  0  0  0  0  0  0  0  0  0  0
    2.6252  -51.6810   17.8390 H   0  0  0  0  0  0  0  0  0  0  0  0
    1.1745  -50.4116   16.1972 H   0  0  0  0  0  0  0  0  0  0  0  0
    2.6967  -53.3456   19.9223 H   0  0  0  0  0  0  0  0  0  0  0  0
   -0.0532  -54.5098   27.7037 H   0  0  0  0  0  0  0  0  0  0  0  0
    1.2632  -55.0235   26.6759 H   0  0  0  0  0  0  0  0  0  0  0  0
   -0.3897  -55.3143   26.1895 H   0  0  0  0  0  0  0  0  0  0  0  0
    0.4241  -50.0989   26.5829 H   0  0  0  0  0  0  0  0  0  0  0  0
   -1.2648  -50.5055   26.0129 H   0  0  0  0  0  0  0  0  0  0  0  0
    0.9982  -49.9609   24.5491 H   0  0  0  0  0  0  0  0  0  0  0  0
   -0.7247  -50.3759   24.1000 H   0  0  0  0  0  0  0  0  0  0  0  0
    1.0055  -50.8714   21.9307 H   0  0  0  0  0  0  0  0  0  0  0  0
    1.7858  -55.1863   21.8584 H   0  0  0  0  0  0  0  0  0  0  0  0
   -4.1021  -49.5846   19.3785 H   0  0  0  0  0  0  0  0  0  0  0  0
   -2.3903  -49.5042   20.0155 H   0  0  0  0  0  0  0  0  0  0  0  0
   -1.7355  -51.3365   21.7952 H   0  0  0  0  0  0  0  0  0  0  0  0
   -2.4638  -52.0956   24.0985 H   0  0  0  0  0  0  0  0  0  0  0  0
   -4.8566  -51.7462   24.8488 H   0  0  0  0  0  0  0  0  0  0  0  0
   -6.5211  -50.6371   23.2963 H   0  0  0  0  0  0  0  0  0  0  0  0
  1  2  2  0  0  0  0
  2  3  1  0  0  0  0
  2 29  1  0  0  0  0
  3  4  2  0  0  0  0
  3 30  1  0  0  0  0
  4  5  1  0  0  0  0
  4  6  1  0  0  0  0
  6 21  1  0  0  0  0
  6  7  2  0  0  0  0
  7  1  1  0  0  0  0
  8  1  1  0  0  0  0
  8 31  1  0  0  0  0
  9 10  1  0  0  0  0
  9 32  1  0  0  0  0
  9 33  1  0  0  0  0
  9 34  1  0  0  0  0
 10 11  1  0  0  0  0
 11 12  2  0  0  0  0
 11 13  1  0  0  0  0
 13 14  1  0  0  0  0
 13 35  1  0  0  0  0
 13 36  1  0  0  0  0
 14 15  1  0  0  0  0
 14 37  1  0  0  0  0
 14 38  1  0  0  0  0
 15 16  2  0  0  0  0
 16 17  1  0  0  0  0
 16 39  1  0  0  0  0
 17  8  1  0  0  0  0
 17 18  2  0  0  0  0
 18 19  1  0  0  0  0
 18 40  1  0  0  0  0
 19 20  2  0  0  0  0
 20 10  1  0  0  0  0
 20 15  1  0  0  0  0
 21 22  1  0  0  0  0
 22 23  1  0  0  0  0
 22 41  1  0  0  0  0
 22 42  1  0  0  0  0
 23 24  2  0  0  0  0
 24 25  1  0  0  0  0
 24 43  1  0  0  0  0
 25 26  2  0  0  0  0
 25 44  1  0  0  0  0
 26 27  1  0  0  0  0
 26 45  1  0  0  0  0
 27 28  2  0  0  0  0
 27 46  1  0  0  0  0
 28 23  1  0  0  0  0
M  END
>  <minimizedAffinity>
-7.99184

$$$$

 OpenBabel09092411003D

 59 62  0  0  0  0  0  0  0  0999 V2000
    0.1962  -52.4159   25.4242 N   0  0  0  0  0  0  0  0  0  0  0  0
    0.0648  -53.3116   26.6203 C   0  0  0  0  0  0  0  0  0  0  0  0
   -0.3311  -52.8843   28.0025 O   0  0  0  0  0  0  0  0  0  0  0  0
    0.3987  -54.7097   26.1914 C   0  0  0  0  0  0  0  0  0  0  0  0
    0.7366  -54.6780   24.7302 C   0  0  0  0  0  0  0  0  0  0  0  0
    0.6114  -53.2604   24.2561 C   0  0  0  0  0  0  0  0  0  0  0  0
    1.0240  -54.2274   23.1862 C   0  0  0  0  0  0  0  0  0  0  0  0
    1.2707  -53.7398   21.7893 C   0  0  0  0  0  0  0  0  0  0  0  0
    1.1048  -52.2853   21.4622 N   0  0  0  0  0  0  0  0  0  0  0  0
    1.3516  -51.7978   20.0652 C   0  0  0  0  0  0  0  0  0  0  0  0
    1.1857  -50.3433   19.7382 O   0  0  0  0  0  0  0  0  0  0  0  0
    1.7642  -52.7648   18.9954 N   0  0  0  0  0  0  0  0  0  0  0  0
    0.6923  -51.3184   22.5321 C   0  0  0  0  0  0  0  0  0  0  0  0
    0.4456  -51.8059   23.9290 C   0  0  0  0  0  0  0  0  0  0  0  0
    2.0109  -52.2773   17.5984 C   0  0  0  0  0  0  0  0  0  0  0  0
    0.9298  -51.5490   16.8563 C   0  0  0  0  0  0  0  0  0  0  0  0
    1.1765  -51.0615   15.4593 C   0  0  0  0  0  0  0  0  0  0  0  0
    2.5044  -51.3023   14.8045 C   0  0  0  0  0  0  0  0  0  0  0  0
    3.5855  -52.0306   15.5466 C   0  0  0  0  0  0  0  0  0  0  0  0
    4.9134  -52.2715   14.8918 Cl  0  0  0  0  0  0  0  0  0  0  0  0
    3.3387  -52.5181   16.9435 C   0  0  0  0  0  0  0  0  0  0  0  0
    2.7511  -50.8148   13.4075 O   0  0  0  0  0  0  0  0  0  0  0  0
    1.6117  -50.7096   12.4377 C   0  0  0  0  0  0  0  0  0  0  0  0
    1.2958  -51.8568   11.5244 C   0  0  0  0  0  0  0  0  0  0  0  0
   -0.0878  -52.4355   11.4981 C   0  0  0  0  0  0  0  0  0  0  0  0
   -0.4037  -53.5827   10.5848 C   0  0  0  0  0  0  0  0  0  0  0  0
    0.6640  -54.1513    9.6979 C   0  0  0  0  0  0  0  0  0  0  0  0
    2.0476  -53.5727    9.7242 C   0  0  0  0  0  0  0  0  0  0  0  0
    2.3636  -52.4254   10.6375 N   0  0  0  0  0  0  0  0  0  0  0  0
   -0.0452  -50.9357   25.4004 C   0  0  0  0  0  0  0  0  0  0  0  0
   -1.3640  -50.3834   25.8541 C   0  0  0  0  0  0  0  0  0  0  0  0
   -3.7658  -52.1740   26.0119 N   0  0  0  0  0  0  0  0  0  0  0  0
   -2.5649  -51.2787   25.9331 C   0  0  0  0  0  0  0  0  0  0  0  0
   -0.4422  -55.3506   26.3558 H   0  0  0  0  0  0  0  0  0  0  0  0
    1.2266  -55.0841   26.7564 H   0  0  0  0  0  0  0  0  0  0  0  0
    0.0593  -55.3036   24.1872 H   0  0  0  0  0  0  0  0  0  0  0  0
    1.7321  -55.0366   24.5710 H   0  0  0  0  0  0  0  0  0  0  0  0
    0.2528  -54.9665   23.1237 H   0  0  0  0  0  0  0  0  0  0  0  0
    1.9915  -54.5521   23.5079 H   0  0  0  0  0  0  0  0  0  0  0  0
    0.6011  -54.2781   21.1515 H   0  0  0  0  0  0  0  0  0  0  0  0
    2.3191  -53.9044   21.6530 H   0  0  0  0  0  0  0  0  0  0  0  0
    1.8731  -53.7194   19.2101 H   0  0  0  0  0  0  0  0  0  0  0  0
   -0.2155  -50.8594   22.2003 H   0  0  0  0  0  0  0  0  0  0  0  0
    1.5511  -50.6892   22.6393 H   0  0  0  0  0  0  0  0  0  0  0  0
   -0.5638  -51.5477   24.1725 H   0  0  0  0  0  0  0  0  0  0  0  0
    1.2235  -51.3365   24.4942 H   0  0  0  0  0  0  0  0  0  0  0  0
    0.0162  -51.3833   17.3068 H   0  0  0  0  0  0  0  0  0  0  0  0
    0.4327  -50.5605   14.9487 H   0  0  0  0  0  0  0  0  0  0  0  0
    4.0825  -53.0192   17.4541 H   0  0  0  0  0  0  0  0  0  0  0  0
    1.8145  -49.8646   11.8134 H   0  0  0  0  0  0  0  0  0  0  0  0
    0.7522  -50.6570   13.0728 H   0  0  0  0  0  0  0  0  0  0  0  0
   -0.8224  -52.0444   12.1084 H   0  0  0  0  0  0  0  0  0  0  0  0
   -1.3557  -53.9808   10.5666 H   0  0  0  0  0  0  0  0  0  0  0  0
    0.4466  -54.9406    9.0696 H   0  0  0  0  0  0  0  0  0  0  0  0
    2.7822  -53.9639    9.1140 H   0  0  0  0  0  0  0  0  0  0  0  0
    0.7055  -50.4903   26.0192 H   0  0  0  0  0  0  0  0  0  0  0  0
   -0.0259  -50.7001   24.3568 H   0  0  0  0  0  0  0  0  0  0  0  0
   -1.2109  -49.9848   26.8352 H   0  0  0  0  0  0  0  0  0  0  0  0
   -1.6220  -49.6938   25.0777 H   0  0  0  0  0  0  0  0  0  0  0  0
  1  2  1  0  0  0  0
  2  3  2  0  0  0  0
  2  4  1  0  0  0  0
  4  5  1  0  0  0  0
  4 34  1  0  0  0  0
  4 35  1  0  0  0  0
  5  6  1  0  0  0  0
  5 36  1  0  0  0  0
  5 37  1  0  0  0  0
  6  7  1  0  0  0  0
  6  1  1  0  0  0  0
  7  8  1  0  0  0  0
  7 38  1  0  0  0  0
  7 39  1  0  0  0  0
  8  9  1  0  0  0  0
  8 40  1  0  0  0  0
  8 41  1  0  0  0  0
  9 10  1  0  0  0  0
  9 13  1  0  0  0  0
 10 11  2  0  0  0  0
 10 12  1  0  0  0  0
 12 15  1  0  0  0  0
 12 42  1  0  0  0  0
 13 14  1  0  0  0  0
 13 43  1  0  0  0  0
 13 44  1  0  0  0  0
 14  6  1  0  0  0  0
 14 45  1  0  0  0  0
 14 46  1  0  0  0  0
 15 16  2  0  0  0  0
 16 17  1  0  0  0  0
 16 47  1  0  0  0  0
 17 18  2  0  0  0  0
 17 48  1  0  0  0  0
 18 22  1  0  0  0  0
 18 19  1  0  0  0  0
 19 20  1  0  0  0  0
 19 21  2  0  0  0  0
 21 15  1  0  0  0  0
 21 49  1  0  0  0  0
 22 23  1  0  0  0  0
 23 24  1  0  0  0  0
 23 50  1  0  0  0  0
 23 51  1  0  0  0  0
 24 25  2  0  0  0  0
 25 26  1  0  0  0  0
 25 52  1  0  0  0  0
 26 27  2  0  0  0  0
 26 53  1  0  0  0  0
 27 28  1  0  0  0  0
 27 54  1  0  0  0  0
 28 29  2  0  0  0  0
 28 55  1  0  0  0  0
 29 24  1  0  0  0  0
 30  1  1  0  0  0  0
 30 56  1  0  0  0  0
 30 57  1  0  0  0  0
 31 30  1  0  0  0  0
 31 58  1  0  0  0  0
 31 59  1  0  0  0  0
 32 33  3  0  0  0  0
 33 31  1  0  0  0  0
M  END
>  <minimizedAffinity>
-7.94052

$$$$

 OpenBabel09092411003D

 59 61  0  0  0  0  0  0  0  0999 V2000
   -1.9218  -49.9548   15.1971 N   0  0  0  0  0  0  0  0  0  0  0  0
   -1.5983  -50.2826   16.6247 C   0  0  0  0  0  0  0  0  0  0  0  0
   -2.7015  -50.6030   17.5892 O   0  0  0  0  0  0  0  0  0  0  0  0
   -0.1716  -50.2901   17.0877 N   0  0  0  0  0  0  0  0  0  0  0  0
    0.1519  -50.6180   18.5152 C   0  0  0  0  0  0  0  0  0  0  0  0
    0.0416  -49.5587   19.5716 C   0  0  0  0  0  0  0  0  0  0  0  0
    0.3651  -49.8866   20.9991 C   0  0  0  0  0  0  0  0  0  0  0  0
    0.7988  -51.2737   21.3703 C   0  0  0  0  0  0  0  0  0  0  0  0
    0.9091  -52.3329   20.3140 C   0  0  0  0  0  0  0  0  0  0  0  0
    1.3428  -53.7200   20.6852 Cl  0  0  0  0  0  0  0  0  0  0  0  0
    0.5856  -52.0051   18.8864 C   0  0  0  0  0  0  0  0  0  0  0  0
    1.1223  -51.6016   22.7978 O   0  0  0  0  0  0  0  0  0  0  0  0
    0.1065  -52.2944   23.6569 C   0  0  0  0  0  0  0  0  0  0  0  0
    0.3075  -52.3722   25.1413 C   0  0  0  0  0  0  0  0  0  0  0  0
    1.3435  -51.5133   25.8040 C   0  0  0  0  0  0  0  0  0  0  0  0
    1.5445  -51.5911   27.2884 C   0  0  0  0  0  0  0  0  0  0  0  0
    0.7095  -52.5277   28.1102 C   0  0  0  0  0  0  0  0  0  0  0  0
   -0.3265  -53.3866   27.4477 C   0  0  0  0  0  0  0  0  0  0  0  0
   -0.5276  -53.3089   25.9632 N   0  0  0  0  0  0  0  0  0  0  0  0
   -3.3485  -49.9473   14.7341 C   0  0  0  0  0  0  0  0  0  0  0  0
   -3.8601  -51.4651   11.1030 N   0  3  2  0  0  0  0  0  0  0  0  0
   -4.2909  -50.2452   10.3440 C   0  0  0  0  0  0  0  0  0  0  0  0
   -4.4076  -48.9260   11.0483 C   0  0  0  0  0  0  0  0  0  0  0  0
   -4.0935  -48.8267   12.5116 C   0  0  0  0  0  0  0  0  0  0  0  0
   -3.6627  -50.0466   13.2706 C   0  0  1  0  0  0  0  0  0  0  0  0
   -3.5459  -51.3658   12.5663 C   0  0  0  0  0  0  0  0  0  0  0  0
   -3.7433  -52.7843   10.3987 C   0  0  0  0  0  0  0  0  0  0  0  0
   -1.6485  -54.3060   10.1842 C   0  0  0  0  0  0  0  0  0  0  0  0
   -2.4693  -53.1493    9.6962 C   0  0  0  0  0  0  0  0  0  0  0  0
   -1.1977  -49.7446   14.5640 H   0  0  0  0  0  0  0  0  0  0  0  0
    0.5525  -50.0798   16.4547 H   0  0  0  0  0  0  0  0  0  0  0  0
   -0.2568  -48.6044   19.3162 H   0  0  0  0  0  0  0  0  0  0  0  0
    0.2893  -49.1578   21.7259 H   0  0  0  0  0  0  0  0  0  0  0  0
    0.6614  -52.7339   18.1597 H   0  0  0  0  0  0  0  0  0  0  0  0
    0.0365  -53.3012   23.3015 H   0  0  0  0  0  0  0  0  0  0  0  0
   -0.7615  -51.6765   23.5583 H   0  0  0  0  0  0  0  0  0  0  0  0
    1.9180  -50.8688   25.2386 H   0  0  0  0  0  0  0  0  0  0  0  0
    2.2573  -51.0002   27.7443 H   0  0  0  0  0  0  0  0  0  0  0  0
    0.8478  -52.5812   29.1315 H   0  0  0  0  0  0  0  0  0  0  0  0
   -0.9009  -54.0310   28.0132 H   0  0  0  0  0  0  0  0  0  0  0  0
   -3.8322  -50.7742   15.2107 H   0  0  0  0  0  0  0  0  0  0  0  0
   -3.6856  -48.9650   14.9919 H   0  0  0  0  0  0  0  0  0  0  0  0
   -4.8518  -51.6779   10.9948 H   0  0  0  0  0  0  0  0  0  0  0  0
   -5.2545  -50.4618    9.9323 H   0  0  0  0  0  0  0  0  0  0  0  0
   -3.4866  -50.0866    9.6564 H   0  0  0  0  0  0  0  0  0  0  0  0
   -5.4192  -48.5993   10.9267 H   0  0  0  0  0  0  0  0  0  0  0  0
   -3.6415  -48.3348   10.5917 H   0  0  0  0  0  0  0  0  0  0  0  0
   -4.9758  -48.4592   12.9927 H   0  0  0  0  0  0  0  0  0  0  0  0
   -3.2245  -48.2029   12.5348 H   0  0  0  0  0  0  0  0  0  0  0  0
   -4.6945  -50.2404   13.0641 H   0  0  0  0  0  0  0  0  0  0  0  0
   -4.2026  -52.0441   13.0700 H   0  0  0  0  0  0  0  0  0  0  0  0
   -2.4973  -51.5746   12.6074 H   0  0  0  0  0  0  0  0  0  0  0  0
   -3.9197  -53.5428   11.1325 H   0  0  0  0  0  0  0  0  0  0  0  0
   -4.4494  -52.6996    9.5992 H   0  0  0  0  0  0  0  0  0  0  0  0
   -0.7827  -54.4153    9.5651 H   0  0  0  0  0  0  0  0  0  0  0  0
   -2.2329  -55.2013   10.1413 H   0  0  0  0  0  0  0  0  0  0  0  0
   -1.3444  -54.1266   11.1943 H   0  0  0  0  0  0  0  0  0  0  0  0
   -2.7269  -53.3606    8.6794 H   0  0  0  0  0  0  0  0  0  0  0  0
   -1.8375  -52.3052    9.8785 H   0  0  0  0  0  0  0  0  0  0  0  0
  1  2  1  0  0  0  0
  1 30  1  0  0  0  0
  2  3  2  0  0  0  0
  2  4  1  0  0  0  0
  4  5  1  0  0  0  0
  4 31  1  0  0  0  0
  5  6  2  0  0  0  0
  6  7  1  0  0  0  0
  6 32  1  0  0  0  0
  7  8  2  0  0  0  0
  7 33  1  0  0  0  0
  8 12  1  0  0  0  0
  8  9  1  0  0  0  0
  9 10  1  0  0  0  0
  9 11  2  0  0  0  0
 11  5  1  0  0  0  0
 11 34  1  0  0  0  0
 12 13  1  0  0  0  0
 13 14  1  0  0  0  0
 13 35  1  0  0  0  0
 13 36  1  0  0  0  0
 14 15  2  0  0  0  0
 15 16  1  0  0  0  0
 15 37  1  0  0  0  0
 16 17  2  0  0  0  0
 16 38  1  0  0  0  0
 17 18  1  0  0  0  0
 17 39  1  0  0  0  0
 18 19  2  0  0  0  0
 18 40  1  0  0  0  0
 19 14  1  0  0  0  0
 20  1  1  0  0  0  0
 20 41  1  0  0  0  0
 20 42  1  0  0  0  0
 21 22  1  0  0  0  0
 21 43  1  1  0  0  0
 22 23  1  0  0  0  0
 22 44  1  0  0  0  0
 22 45  1  0  0  0  0
 23 24  1  0  0  0  0
 23 46  1  0  0  0  0
 23 47  1  0  0  0  0
 24 25  1  0  0  0  0
 24 48  1  0  0  0  0
 24 49  1  0  0  0  0
 25 20  1  0  0  0  0
 25 26  1  0  0  0  0
 25 50  1  1  0  0  0
 26 21  1  0  0  0  0
 26 51  1  0  0  0  0
 26 52  1  0  0  0  0
 27 21  1  0  0  0  0
 27 53  1  0  0  0  0
 27 54  1  0  0  0  0
 28 29  1  0  0  0  0
 28 55  1  0  0  0  0
 28 56  1  0  0  0  0
 28 57  1  0  0  0  0
 29 27  1  0  0  0  0
 29 58  1  0  0  0  0
 29 59  1  0  0  0  0
M  CHG  1  21   1
M  END
>  <minimizedAffinity>
-8.17579

$$$$

 OpenBabel09092411003D

 51 54  0  0  0  0  0  0  0  0999 V2000
    1.5987  -54.1138   22.0565 N   0  0  0  0  0  0  0  0  0  0  0  0
   -3.5381  -49.6027   21.3398 C   0  0  0  0  0  0  0  0  0  0  0  0
   -2.3420  -50.5017   21.2351 C   0  0  0  0  0  0  0  0  0  0  0  0
   -1.9898  -51.4165   22.3705 O   0  0  0  0  0  0  0  0  0  0  0  0
   -1.4981  -50.4860   19.9951 N   0  0  0  0  0  0  0  0  0  0  0  0
   -1.8503  -49.5712   18.8598 C   0  0  0  0  0  0  0  0  0  0  0  0
   -1.0065  -49.5554   17.6198 C   0  0  0  0  0  0  0  0  0  0  0  0
    0.1897  -50.4544   17.5151 C   0  0  0  0  0  0  0  0  0  0  0  0
    0.5419  -51.3692   18.6505 C   0  0  0  0  0  0  0  0  0  0  0  0
    1.7381  -52.2683   18.5458 C   0  0  0  0  0  0  0  0  0  0  0  0
    2.0903  -53.1831   19.6812 C   0  0  0  0  0  0  0  0  0  0  0  0
    1.2464  -53.1989   20.9212 C   0  0  0  0  0  0  0  0  0  0  0  0
    0.0503  -52.2999   21.0258 N   0  0  0  0  0  0  0  0  0  0  0  0
   -0.3020  -51.3850   19.8905 C   0  0  0  0  0  0  0  0  0  0  0  0
    2.5819  -52.2526   17.3058 C   0  0  0  0  0  0  0  0  0  0  0  0
    3.4258  -52.2368   16.0658 N   0  0  0  0  0  0  0  0  0  0  0  0
    1.1763  -53.7712   23.4545 C   0  0  0  0  0  0  0  0  0  0  0  0
    0.6060  -54.8333   24.3472 C   0  0  0  0  0  0  0  0  0  0  0  0
    0.1837  -54.4907   25.7451 C   0  0  0  0  0  0  0  0  0  0  0  0
    0.3316  -53.0861   26.2504 C   0  0  0  0  0  0  0  0  0  0  0  0
    0.9019  -52.0241   25.3577 C   0  0  0  0  0  0  0  0  0  0  0  0
    1.0498  -50.6196   25.8630 Cl  0  0  0  0  0  0  0  0  0  0  0  0
    1.3242  -52.3667   23.9598 C   0  0  0  0  0  0  0  0  0  0  0  0
   -0.0908  -52.7435   27.6483 O   0  0  0  0  0  0  0  0  0  0  0  0
   -1.5387  -52.5007   27.9561 C   0  0  0  0  0  0  0  0  0  0  0  0
   -2.3947  -51.7419   26.9858 C   0  0  0  0  0  0  0  0  0  0  0  0
   -2.2311  -50.2577   26.8428 C   0  0  0  0  0  0  0  0  0  0  0  0
   -3.0871  -49.4989   25.8725 C   0  0  0  0  0  0  0  0  0  0  0  0
   -4.1066  -50.2242   25.0452 C   0  0  0  0  0  0  0  0  0  0  0  0
   -4.2702  -51.7084   25.1882 C   0  0  0  0  0  0  0  0  0  0  0  0
   -3.4142  -52.4672   26.1585 N   0  0  0  0  0  0  0  0  0  0  0  0
    2.1071  -54.9391   21.8841 H   0  0  0  0  0  0  0  0  0  0  0  0
   -4.0134  -49.7503   22.2870 H   0  0  0  0  0  0  0  0  0  0  0  0
   -4.2277  -49.8337   20.5549 H   0  0  0  0  0  0  0  0  0  0  0  0
   -3.2265  -48.5828   21.2521 H   0  0  0  0  0  0  0  0  0  0  0  0
   -1.8423  -48.5755   19.2515 H   0  0  0  0  0  0  0  0  0  0  0  0
   -2.7870  -49.9566   18.5149 H   0  0  0  0  0  0  0  0  0  0  0  0
   -0.6511  -48.5532   17.5008 H   0  0  0  0  0  0  0  0  0  0  0  0
   -1.6665  -49.9357   16.8683 H   0  0  0  0  0  0  0  0  0  0  0  0
    1.0378  -49.8225   17.3531 H   0  0  0  0  0  0  0  0  0  0  0  0
   -0.0779  -51.1294   16.7292 H   0  0  0  0  0  0  0  0  0  0  0  0
    2.9133  -53.8016   19.6092 H   0  0  0  0  0  0  0  0  0  0  0  0
    0.5042  -55.7996   23.9996 H   0  0  0  0  0  0  0  0  0  0  0  0
   -0.2086  -55.2214   26.3593 H   0  0  0  0  0  0  0  0  0  0  0  0
    1.7165  -51.6360   23.3456 H   0  0  0  0  0  0  0  0  0  0  0  0
   -1.5721  -51.9652   28.8819 H   0  0  0  0  0  0  0  0  0  0  0  0
   -1.9616  -53.4835   27.9408 H   0  0  0  0  0  0  0  0  0  0  0  0
   -1.5296  -49.7587   27.4120 H   0  0  0  0  0  0  0  0  0  0  0  0
   -2.9746  -48.4778   25.7741 H   0  0  0  0  0  0  0  0  0  0  0  0
   -4.6955  -49.7021   24.3776 H   0  0  0  0  0  0  0  0  0  0  0  0
   -4.9717  -52.2074   24.6190 H   0  0  0  0  0  0  0  0  0  0  0  0
  1 17  1  0  0  0  0
  1 32  1  0  0  0  0
  2  3  1  0  0  0  0
  2 33  1  0  0  0  0
  2 34  1  0  0  0  0
  2 35  1  0  0  0  0
  3  4  2  0  0  0  0
  3  5  1  0  0  0  0
  5  6  1  0  0  0  0
  6  7  1  0  0  0  0
  6 36  1  0  0  0  0
  6 37  1  0  0  0  0
  7  8  1  0  0  0  0
  7 38  1  0  0  0  0
  7 39  1  0  0  0  0
  8  9  1  0  0  0  0
  8 40  1  0  0  0  0
  8 41  1  0  0  0  0
  9 10  2  0  0  0  0
 10 15  1  0  0  0  0
 10 11  1  0  0  0  0
 11 12  2  0  0  0  0
 11 42  1  0  0  0  0
 12  1  1  0  0  0  0
 12 13  1  0  0  0  0
 13 14  2  0  0  0  0
 14  5  1  0  0  0  0
 14  9  1  0  0  0  0
 15 16  3  0  0  0  0
 17 18  2  0  0  0  0
 18 19  1  0  0  0  0
 18 43  1  0  0  0  0
 19 20  2  0  0  0  0
 19 44  1  0  0  0  0
 20 24  1  0  0  0  0
 20 21  1  0  0  0  0
 21 22  1  0  0  0  0
 21 23  2  0  0  0  0
 23 17  1  0  0  0  0
 23 45  1  0  0  0  0
 24 25  1  0  0  0  0
 25 26  1  0  0  0  0
 25 46  1  0  0  0  0
 25 47  1  0  0  0  0
 26 27  2  0  0  0  0
 27 28  1  0  0  0  0
 27 48  1  0  0  0  0
 28 29  2  0  0  0  0
 28 49  1  0  0  0  0
 29 30  1  0  0  0  0
 29 50  1  0  0  0  0
 30 31  2  0  0  0  0
 30 51  1  0  0  0  0
 31 26  1  0  0  0  0
M  END
>  <minimizedAffinity>
-8.15251

$$$$

 OpenBabel09092411003D

 54 57  0  0  0  0  0  0  0  0999 V2000
    0.1591  -51.5786   20.5598 C   0  0  0  0  0  0  0  0  0  0  0  0
   -0.7717  -51.3401   19.4080 C   0  0  0  0  0  0  0  0  0  0  0  0
   -1.6731  -50.1411   19.4080 C   0  0  0  0  0  0  0  0  0  0  0  0
   -1.6437  -49.1807   20.5599 C   0  0  0  0  0  0  0  0  0  0  0  0
   -0.7129  -49.4194   21.7118 N   0  0  0  0  0  0  0  0  0  0  0  0
    0.1885  -50.6183   21.7117 C   0  0  0  0  0  0  0  0  0  0  0  0
   -2.5451  -47.9818   20.5600 C   0  0  0  0  0  0  0  0  0  0  0  0
   -3.4759  -47.7432   19.4082 C   0  0  0  0  0  0  0  0  0  0  0  0
   -3.5053  -48.7036   18.2563 N   0  0  0  0  0  0  0  0  0  0  0  0
   -4.4361  -48.4649   17.1045 C   0  0  0  0  0  0  0  0  0  0  0  0
   -4.4655  -49.4253   15.9526 O   0  0  0  0  0  0  0  0  0  0  0  0
   -2.6039  -49.9025   18.2562 C   0  0  0  0  0  0  0  0  0  0  0  0
   -5.3375  -47.2660   17.1046 C   0  0  0  0  0  0  0  0  0  0  0  0
   -6.7641  -47.4002   17.5485 N   0  3  0  0  0  0  0  0  0  0  0  0
    1.9619  -53.9765   20.5596 N   0  0  0  0  0  0  0  0  0  0  0  0
    1.0605  -52.7776   20.5597 C   0  0  0  0  0  0  0  0  0  0  0  0
    1.1193  -50.8569   22.8635 N   0  0  0  0  0  0  0  0  0  0  0  0
    0.5798  -51.3458   24.1749 C   0  0  0  0  0  0  0  0  0  0  0  0
    1.4792  -51.4269   25.3726 C   0  0  0  0  0  0  0  0  0  0  0  0
    0.9397  -51.9159   26.6840 C   0  0  0  0  0  0  0  0  0  0  0  0
   -0.4993  -52.3237   26.7978 C   0  0  0  0  0  0  0  0  0  0  0  0
   -1.0388  -52.8126   28.1092 Cl  0  0  0  0  0  0  0  0  0  0  0  0
   -1.3988  -52.2426   25.6001 C   0  0  0  0  0  0  0  0  0  0  0  0
   -0.8593  -51.7537   24.2887 C   0  0  0  0  0  0  0  0  0  0  0  0
   -2.8378  -52.6504   25.7139 O   0  0  0  0  0  0  0  0  0  0  0  0
   -3.9188  -51.6123   25.6518 C   0  0  0  0  0  0  0  0  0  0  0  0
   -4.4133  -51.1230   24.3229 C   0  0  0  0  0  0  0  0  0  0  0  0
   -4.0181  -51.8393   23.0656 C   0  0  0  0  0  0  0  0  0  0  0  0
   -4.5127  -51.3500   21.7367 C   0  0  0  0  0  0  0  0  0  0  0  0
   -5.4024  -50.1445   21.6651 C   0  0  0  0  0  0  0  0  0  0  0  0
   -5.7976  -49.4282   22.9224 C   0  0  0  0  0  0  0  0  0  0  0  0
   -5.3030  -49.9175   24.2513 N   0  0  0  0  0  0  0  0  0  0  0  0
   -0.7920  -52.0009   18.6156 H   0  0  0  0  0  0  0  0  0  0  0  0
   -1.9138  -47.1207   20.6305 H   0  0  0  0  0  0  0  0  0  0  0  0
   -3.2089  -48.1733   21.3771 H   0  0  0  0  0  0  0  0  0  0  0  0
   -3.2280  -46.7839   19.0043 H   0  0  0  0  0  0  0  0  0  0  0  0
   -4.4449  -47.8564   19.8476 H   0  0  0  0  0  0  0  0  0  0  0  0
   -1.9968  -49.8324   17.3779 H   0  0  0  0  0  0  0  0  0  0  0  0
   -3.2870  -50.7238   18.3178 H   0  0  0  0  0  0  0  0  0  0  0  0
   -5.3599  -46.8963   16.1008 H   0  0  0  0  0  0  0  0  0  0  0  0
   -4.9058  -46.6338   17.8521 H   0  0  0  0  0  0  0  0  0  0  0  0
   -7.2701  -47.9941   16.8916 H   0  0  0  0  0  0  0  0  0  0  0  0
   -7.1992  -46.4781   17.5779 H   0  0  0  0  0  0  0  0  0  0  0  0
   -6.7930  -47.8196   18.4778 H   0  0  0  0  0  0  0  0  0  0  0  0
    2.0843  -50.6926   22.7587 H   0  0  0  0  0  0  0  0  0  0  0  0
    2.4692  -51.1462   25.2944 H   0  0  0  0  0  0  0  0  0  0  0  0
    1.5586  -51.9718   27.5080 H   0  0  0  0  0  0  0  0  0  0  0  0
   -1.4781  -51.6979   23.4647 H   0  0  0  0  0  0  0  0  0  0  0  0
   -3.5554  -50.7560   26.1805 H   0  0  0  0  0  0  0  0  0  0  0  0
   -4.7691  -52.1179   26.0596 H   0  0  0  0  0  0  0  0  0  0  0  0
   -3.4060  -52.6687   23.1149 H   0  0  0  0  0  0  0  0  0  0  0  0
   -4.2409  -51.8428   20.8717 H   0  0  0  0  0  0  0  0  0  0  0  0
   -5.7426  -49.8079   20.7508 H   0  0  0  0  0  0  0  0  0  0  0  0
   -6.4097  -48.5988   22.8731 H   0  0  0  0  0  0  0  0  0  0  0  0
  1  2  2  0  0  0  0
  2  3  1  0  0  0  0
  2 33  1  0  0  0  0
  3  4  2  0  0  0  0
  4  5  1  0  0  0  0
  4  7  1  0  0  0  0
  5  6  2  0  0  0  0
  6 17  1  0  0  0  0
  6  1  1  0  0  0  0
  7  8  1  0  0  0  0
  7 34  1  0  0  0  0
  7 35  1  0  0  0  0
  8  9  1  0  0  0  0
  8 36  1  0  0  0  0
  8 37  1  0  0  0  0
  9 10  1  0  0  0  0
  9 12  1  0  0  0  0
 10 11  2  0  0  0  0
 10 13  1  0  0  0  0
 12  3  1  0  0  0  0
 12 38  1  0  0  0  0
 12 39  1  0  0  0  0
 13 14  1  0  0  0  0
 13 40  1  0  0  0  0
 13 41  1  0  0  0  0
 14 42  1  0  0  0  0
 14 43  1  0  0  0  0
 14 44  1  0  0  0  0
 15 16  3  0  0  0  0
 16  1  1  0  0  0  0
 17 18  1  0  0  0  0
 17 45  1  0  0  0  0
 18 19  2  0  0  0  0
 19 20  1  0  0  0  0
 19 46  1  0  0  0  0
 20 21  2  0  0  0  0
 20 47  1  0  0  0  0
 21 22  1  0  0  0  0
 21 23  1  0  0  0  0
 23 25  1  0  0  0  0
 23 24  2  0  0  0  0
 24 18  1  0  0  0  0
 24 48  1  0  0  0  0
 25 26  1  0  0  0  0
 26 27  1  0  0  0  0
 26 49  1  0  0  0  0
 26 50  1  0  0  0  0
 27 28  2  0  0  0  0
 28 29  1  0  0  0  0
 28 51  1  0  0  0  0
 29 30  2  0  0  0  0
 29 52  1  0  0  0  0
 30 31  1  0  0  0  0
 30 53  1  0  0  0  0
 31 32  2  0  0  0  0
 31 54  1  0  0  0  0
 32 27  1  0  0  0  0
M  CHG  1  14   1
M  END
>  <minimizedAffinity>
-7.38719

$$$$

 OpenBabel09092411003D

 56 59  0  0  0  0  0  0  0  0999 V2000
    0.2419  -50.8798   21.7224 C   0  0  0  0  0  0  0  0  0  0  0  0
   -0.1813  -49.5096   21.2827 N   0  0  0  0  0  0  0  0  0  0  0  0
   -0.1608  -49.1494   19.8267 C   0  0  0  0  0  0  0  0  0  0  0  0
    0.2830  -50.1594   18.8104 C   0  0  0  0  0  0  0  0  0  0  0  0
    0.7062  -51.5296   19.2501 C   0  0  0  0  0  0  0  0  0  0  0  0
    0.6857  -51.8898   20.7061 C   0  0  0  0  0  0  0  0  0  0  0  0
    1.3902  -52.1314   28.3831 C   0  0  0  0  0  0  0  0  0  0  0  0
    0.1598  -52.3207   27.5462 C   0  0  0  0  0  0  0  0  0  0  0  0
   -1.0910  -52.8701   28.1653 O   0  0  0  0  0  0  0  0  0  0  0  0
    0.1804  -51.9605   26.0903 N   0  0  0  0  0  0  0  0  0  0  0  0
    1.4312  -51.4110   25.4711 C   0  0  0  0  0  0  0  0  0  0  0  0
    1.4517  -51.0508   24.0152 C   0  0  0  0  0  0  0  0  0  0  0  0
    0.2214  -51.2400   23.1783 N   0  0  0  0  0  0  0  0  0  0  0  0
   -1.0295  -51.7895   23.7974 C   0  0  0  0  0  0  0  0  0  0  0  0
   -1.0500  -52.1497   25.2534 C   0  0  0  0  0  0  0  0  0  0  0  0
    1.1500  -52.5397   18.2338 N   0  0  0  0  0  0  0  0  0  0  0  0
    1.8041  -52.0866   16.9622 C   0  0  0  0  0  0  0  0  0  0  0  0
    1.0253  -51.2835   15.9630 C   0  0  0  0  0  0  0  0  0  0  0  0
    1.6794  -50.8305   14.6914 C   0  0  0  0  0  0  0  0  0  0  0  0
    3.1124  -51.1805   14.4191 C   0  0  0  0  0  0  0  0  0  0  0  0
    3.8912  -51.9836   15.4183 C   0  0  0  0  0  0  0  0  0  0  0  0
    5.3241  -52.3337   15.1460 Cl  0  0  0  0  0  0  0  0  0  0  0  0
    3.2370  -52.4367   16.6899 C   0  0  0  0  0  0  0  0  0  0  0  0
    3.7665  -50.7275   13.1475 O   0  0  0  0  0  0  0  0  0  0  0  0
    2.9650  -50.6370   11.8827 C   0  0  0  0  0  0  0  0  0  0  0  0
    2.4333  -51.8841   11.2410 C   0  0  0  0  0  0  0  0  0  0  0  0
    0.9596  -52.1634   11.2518 C   0  0  0  0  0  0  0  0  0  0  0  0
    0.4278  -53.4105   10.6100 C   0  0  0  0  0  0  0  0  0  0  0  0
    1.3697  -54.3784    9.9575 C   0  0  0  0  0  0  0  0  0  0  0  0
    2.8435  -54.0992    9.9467 C   0  0  0  0  0  0  0  0  0  0  0  0
    3.3753  -52.8521   10.5884 N   0  0  0  0  0  0  0  0  0  0  0  0
    1.1090  -53.2601   21.1457 C   0  0  0  0  0  0  0  0  0  0  0  0
    1.5322  -54.6303   21.5853 N   0  0  0  0  0  0  0  0  0  0  0  0
   -0.4520  -48.2067   19.5242 H   0  0  0  0  0  0  0  0  0  0  0  0
    0.2972  -49.9116   17.8087 H   0  0  0  0  0  0  0  0  0  0  0  0
    1.1891  -52.4396   29.3878 H   0  0  0  0  0  0  0  0  0  0  0  0
    1.6709  -51.0989   28.3762 H   0  0  0  0  0  0  0  0  0  0  0  0
    2.1883  -52.7207   27.9823 H   0  0  0  0  0  0  0  0  0  0  0  0
    2.1967  -52.1439   25.6188 H   0  0  0  0  0  0  0  0  0  0  0  0
    1.5532  -50.4669   25.9597 H   0  0  0  0  0  0  0  0  0  0  0  0
    2.2256  -51.6354   23.5633 H   0  0  0  0  0  0  0  0  0  0  0  0
    1.5805  -49.9886   24.0265 H   0  0  0  0  0  0  0  0  0  0  0  0
   -1.2775  -52.6783   23.2558 H   0  0  0  0  0  0  0  0  0  0  0  0
   -1.7144  -50.9696   23.7372 H   0  0  0  0  0  0  0  0  0  0  0  0
   -1.3065  -53.1869   25.3114 H   0  0  0  0  0  0  0  0  0  0  0  0
   -1.7415  -51.4478   25.6706 H   0  0  0  0  0  0  0  0  0  0  0  0
    1.0120  -53.5000   18.4014 H   0  0  0  0  0  0  0  0  0  0  0  0
    0.0395  -51.0426   16.1504 H   0  0  0  0  0  0  0  0  0  0  0  0
    1.1435  -50.2780   14.0039 H   0  0  0  0  0  0  0  0  0  0  0  0
    3.7728  -52.9893   17.3774 H   0  0  0  0  0  0  0  0  0  0  0  0
    3.5871  -50.1570   11.1564 H   0  0  0  0  0  0  0  0  0  0  0  0
    2.0791  -50.1212   12.1893 H   0  0  0  0  0  0  0  0  0  0  0  0
    0.3115  -51.4975   11.7008 H   0  0  0  0  0  0  0  0  0  0  0  0
   -0.5861  -53.6026   10.6174 H   0  0  0  0  0  0  0  0  0  0  0  0
    1.0038  -55.2364    9.5160 H   0  0  0  0  0  0  0  0  0  0  0  0
    3.4916  -54.7652    9.4978 H   0  0  0  0  0  0  0  0  0  0  0  0
  1  2  2  0  0  0  0
  2  3  1  0  0  0  0
  3  4  2  0  0  0  0
  3 34  1  0  0  0  0
  4  5  1  0  0  0  0
  4 35  1  0  0  0  0
  5 16  1  0  0  0  0
  5  6  2  0  0  0  0
  6 32  1  0  0  0  0
  6  1  1  0  0  0  0
  7  8  1  0  0  0  0
  7 36  1  0  0  0  0
  7 37  1  0  0  0  0
  7 38  1  0  0  0  0
  8  9  2  0  0  0  0
  8 10  1  0  0  0  0
 10 11  1  0  0  0  0
 11 12  1  0  0  0  0
 11 39  1  0  0  0  0
 11 40  1  0  0  0  0
 12 13  1  0  0  0  0
 12 41  1  0  0  0  0
 12 42  1  0  0  0  0
 13  1  1  0  0  0  0
 13 14  1  0  0  0  0
 14 15  1  0  0  0  0
 14 43  1  0  0  0  0
 14 44  1  0  0  0  0
 15 10  1  0  0  0  0
 15 45  1  0  0  0  0
 15 46  1  0  0  0  0
 16 17  1  0  0  0  0
 16 47  1  0  0  0  0
 17 18  2  0  0  0  0
 18 19  1  0  0  0  0
 18 48  1  0  0  0  0
 19 20  2  0  0  0  0
 19 49  1  0  0  0  0
 20 24  1  0  0  0  0
 20 21  1  0  0  0  0
 21 22  1  0  0  0  0
 21 23  2  0  0  0  0
 23 17  1  0  0  0  0
 23 50  1  0  0  0  0
 24 25  1  0  0  0  0
 25 26  1  0  0  0  0
 25 51  1  0  0  0  0
 25 52  1  0  0  0  0
 26 27  2  0  0  0  0
 27 28  1  0  0  0  0
 27 53  1  0  0  0  0
 28 29  2  0  0  0  0
 28 54  1  0  0  0  0
 29 30  1  0  0  0  0
 29 55  1  0  0  0  0
 30 31  2  0  0  0  0
 30 56  1  0  0  0  0
 31 26  1  0  0  0  0
 32 33  3  0  0  0  0
M  END
>  <minimizedAffinity>
-7.73377

$$$$

 OpenBabel09092411003D

 55 58  0  0  0  0  0  0  0  0999 V2000
    0.7603  -52.4514   22.9830 N   0  0  0  0  0  0  0  0  0  0  0  0
    1.3498  -53.3154   21.9078 C   0  0  0  0  0  0  0  0  0  0  0  0
    1.9560  -54.6737   22.1017 O   0  0  0  0  0  0  0  0  0  0  0  0
    1.2266  -52.5827   20.6048 C   0  0  0  0  0  0  0  0  0  0  0  0
    1.6346  -52.9446   19.2074 N   0  0  0  0  0  0  0  0  0  0  0  0
    1.3769  -51.9895   18.0799 C   0  0  0  0  0  0  0  0  0  0  0  0
    1.7849  -52.3513   16.6824 N   0  0  0  0  0  0  0  0  0  0  0  0
    0.7114  -50.6726   18.3496 C   0  0  0  0  0  0  0  0  0  0  0  0
    0.3034  -50.3108   19.7470 C   0  0  0  0  0  0  0  0  0  0  0  0
    0.5611  -51.2658   20.8745 C   0  0  0  0  0  0  0  0  0  0  0  0
    0.2729  -51.1847   22.3444 C   0  0  0  0  0  0  0  0  0  0  0  0
   -0.3870  -50.0380   23.0514 O   0  0  0  0  0  0  0  0  0  0  0  0
    0.4537  -49.7175   17.2220 C   0  0  0  0  0  0  0  0  0  0  0  0
    0.1960  -48.7625   16.0944 N   0  0  0  0  0  0  0  0  0  0  0  0
   -0.3622  -48.9939   20.0168 N   0  0  0  0  0  0  0  0  0  0  0  0
   -1.8052  -48.9524   20.4239 C   0  0  0  0  0  0  0  0  0  0  0  0
   -2.7096  -50.1043   20.0994 C   0  0  0  0  0  0  0  0  0  0  0  0
   -4.1526  -50.0628   20.5065 C   0  0  0  0  0  0  0  0  0  0  0  0
   -4.6914  -48.8693   21.2382 C   0  0  0  0  0  0  0  0  0  0  0  0
   -3.7872  -47.7174   21.5627 C   0  0  0  0  0  0  0  0  0  0  0  0
   -4.3260  -46.5240   22.2944 Cl  0  0  0  0  0  0  0  0  0  0  0  0
   -2.3440  -47.7589   21.1556 C   0  0  0  0  0  0  0  0  0  0  0  0
   -6.1346  -48.8279   21.6453 O   0  0  0  0  0  0  0  0  0  0  0  0
   -6.5802  -49.5196   22.8995 C   0  0  0  0  0  0  0  0  0  0  0  0
   -5.5802  -49.8584   23.9649 C   0  0  0  0  0  0  0  0  0  0  0  0
   -5.0721  -51.2635   24.0971 C   0  0  0  0  0  0  0  0  0  0  0  0
   -4.0721  -51.6023   25.1625 C   0  0  0  0  0  0  0  0  0  0  0  0
   -3.5802  -50.5360   26.0958 C   0  0  0  0  0  0  0  0  0  0  0  0
   -4.0883  -49.1309   25.9637 C   0  0  0  0  0  0  0  0  0  0  0  0
   -5.0883  -48.7921   24.8982 N   0  0  0  0  0  0  0  0  0  0  0  0
    0.6736  -52.7939   24.4408 C   0  0  0  0  0  0  0  0  0  0  0  0
    0.0369  -51.4541   26.5738 C   0  0  0  0  0  0  0  0  0  0  0  0
    1.0109  -51.7613   25.4752 C   0  0  0  0  0  0  0  0  0  0  0  0
    2.3224  -51.0360   25.4110 C   0  0  0  0  0  0  0  0  0  0  0  0
    2.2217  -53.2156   16.5053 H   0  0  0  0  0  0  0  0  0  0  0  0
    1.6159  -51.7244   15.9424 H   0  0  0  0  0  0  0  0  0  0  0  0
    0.1481  -48.1568   19.9267 H   0  0  0  0  0  0  0  0  0  0  0  0
   -2.3389  -50.9254   19.5960 H   0  0  0  0  0  0  0  0  0  0  0  0
   -4.7747  -50.8553   20.2832 H   0  0  0  0  0  0  0  0  0  0  0  0
   -1.7219  -46.9664   21.3789 H   0  0  0  0  0  0  0  0  0  0  0  0
   -7.0357  -50.4401   22.5994 H   0  0  0  0  0  0  0  0  0  0  0  0
   -7.2064  -48.7922   23.3723 H   0  0  0  0  0  0  0  0  0  0  0  0
   -5.4106  -51.9971   23.4550 H   0  0  0  0  0  0  0  0  0  0  0  0
   -3.7225  -52.5690   25.2534 H   0  0  0  0  0  0  0  0  0  0  0  0
   -2.8922  -50.7691   26.8288 H   0  0  0  0  0  0  0  0  0  0  0  0
   -3.7499  -48.3973   26.6058 H   0  0  0  0  0  0  0  0  0  0  0  0
   -0.3348  -53.0996   24.6268 H   0  0  0  0  0  0  0  0  0  0  0  0
    1.4414  -53.5283   24.5670 H   0  0  0  0  0  0  0  0  0  0  0  0
    0.4455  -50.6984   27.2117 H   0  0  0  0  0  0  0  0  0  0  0  0
   -0.1486  -52.3402   27.1441 H   0  0  0  0  0  0  0  0  0  0  0  0
   -0.8809  -51.1045   26.1493 H   0  0  0  0  0  0  0  0  0  0  0  0
    0.2452  -51.0186   25.3918 H   0  0  0  0  0  0  0  0  0  0  0  0
    3.1238  -51.7404   25.4908 H   0  0  0  0  0  0  0  0  0  0  0  0
    2.3821  -50.3350   26.2172 H   0  0  0  0  0  0  0  0  0  0  0  0
    2.3967  -50.5152   24.4793 H   0  0  0  0  0  0  0  0  0  0  0  0
  1  2  1  0  0  0  0
  2  3  2  0  0  0  0
  2  4  1  0  0  0  0
  4  5  2  0  0  0  0
  5  6  1  0  0  0  0
  6  7  1  0  0  0  0
  6  8  2  0  0  0  0
  7 35  1  0  0  0  0
  7 36  1  0  0  0  0
  8 13  1  0  0  0  0
  8  9  1  0  0  0  0
  9 15  1  0  0  0  0
  9 10  2  0  0  0  0
 10 11  1  0  0  0  0
 10  4  1  0  0  0  0
 11 12  2  0  0  0  0
 11  1  1  0  0  0  0
 13 14  3  0  0  0  0
 15 16  1  0  0  0  0
 15 37  1  0  0  0  0
 16 17  2  0  0  0  0
 17 18  1  0  0  0  0
 17 38  1  0  0  0  0
 18 19  2  0  0  0  0
 18 39  1  0  0  0  0
 19 23  1  0  0  0  0
 19 20  1  0  0  0  0
 20 21  1  0  0  0  0
 20 22  2  0  0  0  0
 22 16  1  0  0  0  0
 22 40  1  0  0  0  0
 23 24  1  0  0  0  0
 24 25  1  0  0  0  0
 24 41  1  0  0  0  0
 24 42  1  0  0  0  0
 25 26  2  0  0  0  0
 26 27  1  0  0  0  0
 26 43  1  0  0  0  0
 27 28  2  0  0  0  0
 27 44  1  0  0  0  0
 28 29  1  0  0  0  0
 28 45  1  0  0  0  0
 29 30  2  0  0  0  0
 29 46  1  0  0  0  0
 30 25  1  0  0  0  0
 31  1  1  0  0  0  0
 31 47  1  0  0  0  0
 31 48  1  0  0  0  0
 32 33  1  0  0  0  0
 32 49  1  0  0  0  0
 32 50  1  0  0  0  0
 32 51  1  0  0  0  0
 33 34  1  0  0  0  0
 33 31  1  0  0  0  0
 33 52  1  0  0  0  0
 34 53  1  0  0  0  0
 34 54  1  0  0  0  0
 34 55  1  0  0  0  0
M  END
>  <minimizedAffinity>
-7.45790

$$$$

 OpenBabel09092411003D

 44 46  0  0  0  0  0  0  0  0999 V2000
   -0.9746  -50.6606   23.1804 C   0  0  0  0  0  0  0  0  0  0  0  0
   -0.1264  -51.6067   22.3833 N   0  0  0  0  0  0  0  0  0  0  0  0
    0.5262  -51.1422   21.1151 C   0  0  0  0  0  0  0  0  0  0  0  0
    0.3307  -49.7316   20.6440 N   0  0  0  0  0  0  0  0  0  0  0  0
   -0.5175  -48.7854   21.4412 C   0  0  0  0  0  0  0  0  0  0  0  0
   -0.7129  -47.3748   20.9701 C   0  0  0  0  0  0  0  0  0  0  0  0
   -1.5611  -46.4287   21.7673 C   0  0  0  0  0  0  0  0  0  0  0  0
   -2.2137  -46.8932   23.0355 C   0  0  0  0  0  0  0  0  0  0  0  0
   -2.0182  -48.3038   23.5065 C   0  0  0  0  0  0  0  0  0  0  0  0
   -1.1701  -49.2499   22.7094 C   0  0  0  0  0  0  0  0  0  0  0  0
   -1.6272  -51.1250   24.4486 N   0  0  0  0  0  0  0  0  0  0  0  0
   -3.0053  -51.7163   24.4100 C   0  0  0  0  0  0  0  0  0  0  0  0
   -3.6579  -52.1808   25.6782 N   0  0  0  0  0  0  0  0  0  0  0  0
   -3.7306  -51.8431   23.1032 O   0  0  0  0  0  0  0  0  0  0  0  0
   -0.9018  -50.9983   25.7554 C   0  0  0  0  0  0  0  0  0  0  0  0
    0.1102  -52.0309   26.1547 C   0  0  0  0  0  0  0  0  0  0  0  0
    2.4721  -51.0331   25.7356 C   0  0  0  0  0  0  0  0  0  0  0  0
    1.4514  -51.6051   26.6742 N   0  3  0  0  0  0  0  0  0  0  0  0
    1.7718  -51.7511   28.1323 C   0  0  0  0  0  0  0  0  0  0  0  0
    1.3744  -52.0884   20.3179 C   0  0  0  0  0  0  0  0  0  0  0  0
    1.9311  -52.5382   18.9997 C   0  0  0  0  0  0  0  0  0  0  0  0
    2.2866  -53.2775   20.2555 C   0  0  0  0  0  0  0  0  0  0  0  0
   -0.2638  -47.0552   20.0976 H   0  0  0  0  0  0  0  0  0  0  0  0
   -1.6957  -45.4582   21.4432 H   0  0  0  0  0  0  0  0  0  0  0  0
   -2.7972  -46.2423   23.5840 H   0  0  0  0  0  0  0  0  0  0  0  0
   -2.4672  -48.6234   24.3790 H   0  0  0  0  0  0  0  0  0  0  0  0
   -3.1818  -52.0976   26.5359 H   0  0  0  0  0  0  0  0  0  0  0  0
   -4.5623  -52.5689   25.6529 H   0  0  0  0  0  0  0  0  0  0  0  0
   -0.3921  -50.0577   25.7358 H   0  0  0  0  0  0  0  0  0  0  0  0
   -1.6786  -51.1219   26.4808 H   0  0  0  0  0  0  0  0  0  0  0  0
   -0.3421  -52.6272   26.9194 H   0  0  0  0  0  0  0  0  0  0  0  0
    0.3468  -52.5139   25.2297 H   0  0  0  0  0  0  0  0  0  0  0  0
    3.3600  -50.7885   26.2803 H   0  0  0  0  0  0  0  0  0  0  0  0
    2.0798  -50.1492   25.2776 H   0  0  0  0  0  0  0  0  0  0  0  0
    2.7046  -51.7535   24.9794 H   0  0  0  0  0  0  0  0  0  0  0  0
    1.8897  -52.5244   26.7297 H   0  0  0  0  0  0  0  0  0  0  0  0
    1.4537  -50.8744   28.6569 H   0  0  0  0  0  0  0  0  0  0  0  0
    2.8273  -51.8767   28.2547 H   0  0  0  0  0  0  0  0  0  0  0  0
    1.2629  -52.6063   28.5254 H   0  0  0  0  0  0  0  0  0  0  0  0
    0.7695  -51.4133   20.8865 H   0  0  0  0  0  0  0  0  0  0  0  0
    2.6692  -51.9458   18.5005 H   0  0  0  0  0  0  0  0  0  0  0  0
    1.5107  -52.8111   18.0543 H   0  0  0  0  0  0  0  0  0  0  0  0
    3.2783  -53.2125   20.6521 H   0  0  0  0  0  0  0  0  0  0  0  0
    2.2248  -54.2962   20.5770 H   0  0  0  0  0  0  0  0  0  0  0  0
  1  2  2  0  0  0  0
  2  3  1  0  0  0  0
  3 20  1  0  0  0  0
  3  4  2  0  0  0  0
  4  5  1  0  0  0  0
  5  6  2  0  0  0  0
  6  7  1  0  0  0  0
  6 23  1  0  0  0  0
  7  8  2  0  0  0  0
  7 24  1  0  0  0  0
  8  9  1  0  0  0  0
  8 25  1  0  0  0  0
  9 10  2  0  0  0  0
  9 26  1  0  0  0  0
 10  1  1  0  0  0  0
 10  5  1  0  0  0  0
 11 12  1  0  0  0  0
 11  1  1  0  0  0  0
 12 13  1  0  0  0  0
 12 14  2  0  0  0  0
 13 27  1  0  0  0  0
 13 28  1  0  0  0  0
 15 11  1  0  0  0  0
 15 29  1  0  0  0  0
 15 30  1  0  0  0  0
 16 15  1  0  0  0  0
 16 31  1  0  0  0  0
 16 32  1  0  0  0  0
 17 18  1  0  0  0  0
 17 33  1  0  0  0  0
 17 34  1  0  0  0  0
 17 35  1  0  0  0  0
 18 19  1  0  0  0  0
 18 16  1  0  0  0  0
 18 36  1  0  0  0  0
 19 37  1  0  0  0  0
 19 38  1  0  0  0  0
 19 39  1  0  0  0  0
 20 21  1  0  0  0  0
 20 40  1  0  0  0  0
 21 22  1  0  0  0  0
 21 41  1  0  0  0  0
 21 42  1  0  0  0  0
 22 20  1  0  0  0  0
 22 43  1  0  0  0  0
 22 44  1  0  0  0  0
M  CHG  1  18   1
M  END
>  <minimizedAffinity>
-7.00334

$$$$

 OpenBabel09092411003D

 53 56  0  0  0  0  0  0  0  0999 V2000
    0.5815  -51.8393   25.0679 N   0  0  0  0  0  0  0  0  0  0  0  0
    0.8108  -52.9562   24.0931 C   0  0  0  0  0  0  0  0  0  0  0  0
    0.9177  -54.3696   24.5836 O   0  0  0  0  0  0  0  0  0  0  0  0
    0.9332  -52.6595   22.6279 N   0  0  0  0  0  0  0  0  0  0  0  0
    0.8264  -51.2459   22.1374 C   0  0  0  0  0  0  0  0  0  0  0  0
    0.9488  -50.9492   20.6721 C   0  0  0  0  0  0  0  0  0  0  0  0
    1.1781  -52.0661   19.6973 N   0  0  0  0  0  0  0  0  0  0  0  0
    1.2849  -53.4795   20.1878 C   0  0  0  0  0  0  0  0  0  0  0  0
    1.1625  -53.7762   21.6531 C   0  0  0  0  0  0  0  0  0  0  0  0
    1.3005  -51.7693   18.2321 C   0  0  0  0  0  0  0  0  0  0  0  0
    2.5686  -52.1013   17.5030 N   0  0  0  0  0  0  0  0  0  0  0  0
    2.6910  -51.8046   16.0378 C   0  0  0  0  0  0  0  0  0  0  0  0
    1.5453  -51.1759   15.3016 N   0  0  0  0  0  0  0  0  0  0  0  0
    0.2771  -50.8439   16.0306 C   0  0  0  0  0  0  0  0  0  0  0  0
   -0.8686  -50.2152   15.2944 C   0  0  0  0  0  0  0  0  0  0  0  0
   -2.1368  -49.8832   16.0235 C   0  0  0  0  0  0  0  0  0  0  0  0
   -2.2592  -50.1799   17.4888 C   0  0  0  0  0  0  0  0  0  0  0  0
   -1.1135  -50.8086   18.2250 C   0  0  0  0  0  0  0  0  0  0  0  0
    0.1547  -51.1406   17.4959 C   0  0  0  0  0  0  0  0  0  0  0  0
    3.9592  -52.1367   15.3087 C   0  0  0  0  0  0  0  0  0  0  0  0
    4.8655  -51.9511   14.1280 C   0  0  0  0  0  0  0  0  0  0  0  0
    5.2494  -52.8974   15.2266 C   0  0  0  0  0  0  0  0  0  0  0  0
   -0.9831  -52.4999   26.3390 C   0  0  0  0  0  0  0  0  0  0  0  0
    0.4591  -52.1360   26.5332 C   0  0  0  0  0  0  0  0  0  0  0  0
    1.9013  -51.7721   26.7273 C   0  0  0  0  0  0  0  0  0  0  0  0
    0.3367  -52.4327   27.9984 C   0  0  0  0  0  0  0  0  0  0  0  0
    0.5113  -50.9116   24.7460 H   0  0  0  0  0  0  0  0  0  0  0  0
    1.5954  -50.6889   22.6306 H   0  0  0  0  0  0  0  0  0  0  0  0
   -0.1878  -50.9853   22.3572 H   0  0  0  0  0  0  0  0  0  0  0  0
    1.7681  -50.2699   20.5619 H   0  0  0  0  0  0  0  0  0  0  0  0
   -0.0253  -50.5913   20.4114 H   0  0  0  0  0  0  0  0  0  0  0  0
    2.2427  -53.8424   19.8781 H   0  0  0  0  0  0  0  0  0  0  0  0
    0.4210  -53.9513   19.7683 H   0  0  0  0  0  0  0  0  0  0  0  0
    2.0699  -54.2612   21.9469 H   0  0  0  0  0  0  0  0  0  0  0  0
    0.2585  -54.3453   21.7141 H   0  0  0  0  0  0  0  0  0  0  0  0
   -0.7844  -50.0111   14.2863 H   0  0  0  0  0  0  0  0  0  0  0  0
   -2.9251  -49.4507   15.5170 H   0  0  0  0  0  0  0  0  0  0  0  0
   -3.1317  -49.9515   17.9904 H   0  0  0  0  0  0  0  0  0  0  0  0
   -1.1977  -51.0127   19.2331 H   0  0  0  0  0  0  0  0  0  0  0  0
    3.0546  -51.8999   15.8288 H   0  0  0  0  0  0  0  0  0  0  0  0
    5.3993  -51.0323   14.0025 H   0  0  0  0  0  0  0  0  0  0  0  0
    4.7516  -52.0299   13.0670 H   0  0  0  0  0  0  0  0  0  0  0  0
    6.0570  -52.6536   15.8848 H   0  0  0  0  0  0  0  0  0  0  0  0
    5.5228  -53.9308   15.2739 H   0  0  0  0  0  0  0  0  0  0  0  0
   -1.4084  -52.7860   27.2783 H   0  0  0  0  0  0  0  0  0  0  0  0
   -1.0554  -53.3164   25.6513 H   0  0  0  0  0  0  0  0  0  0  0  0
   -1.5143  -51.6569   25.9490 H   0  0  0  0  0  0  0  0  0  0  0  0
    2.1619  -51.8851   27.7589 H   0  0  0  0  0  0  0  0  0  0  0  0
    2.0560  -50.7561   26.4296 H   0  0  0  0  0  0  0  0  0  0  0  0
    2.5148  -52.4156   26.1319 H   0  0  0  0  0  0  0  0  0  0  0  0
    0.6834  -51.5923   28.5627 H   0  0  0  0  0  0  0  0  0  0  0  0
    0.9273  -53.2919   28.2389 H   0  0  0  0  0  0  0  0  0  0  0  0
   -0.6879  -52.6256   28.2389 H   0  0  0  0  0  0  0  0  0  0  0  0
  1  2  1  0  0  0  0
  1 27  1  0  0  0  0
  2  3  2  0  0  0  0
  2  4  1  0  0  0  0
  4  5  1  0  0  0  0
  5  6  1  0  0  0  0
  5 28  1  0  0  0  0
  5 29  1  0  0  0  0
  6  7  1  0  0  0  0
  6 30  1  0  0  0  0
  6 31  1  0  0  0  0
  7 10  1  0  0  0  0
  7  8  1  0  0  0  0
  8  9  1  0  0  0  0
  8 32  1  0  0  0  0
  8 33  1  0  0  0  0
  9  4  1  0  0  0  0
  9 34  1  0  0  0  0
  9 35  1  0  0  0  0
 10 11  2  0  0  0  0
 11 12  1  0  0  0  0
 12 20  1  0  0  0  0
 12 13  2  0  0  0  0
 13 14  1  0  0  0  0
 14 15  2  0  0  0  0
 15 16  1  0  0  0  0
 15 36  1  0  0  0  0
 16 17  2  0  0  0  0
 16 37  1  0  0  0  0
 17 18  1  0  0  0  0
 17 38  1  0  0  0  0
 18 19  2  0  0  0  0
 18 39  1  0  0  0  0
 19 10  1  0  0  0  0
 19 14  1  0  0  0  0
 20 21  1  0  0  0  0
 20 40  1  0  0  0  0
 21 22  1  0  0  0  0
 21 41  1  0  0  0  0
 21 42  1  0  0  0  0
 22 20  1  0  0  0  0
 22 43  1  0  0  0  0
 22 44  1  0  0  0  0
 23 24  1  0  0  0  0
 23 45  1  0  0  0  0
 23 46  1  0  0  0  0
 23 47  1  0  0  0  0
 24 25  1  0  0  0  0
 24 26  1  0  0  0  0
 24  1  1  0  0  0  0
 25 48  1  0  0  0  0
 25 49  1  0  0  0  0
 25 50  1  0  0  0  0
 26 51  1  0  0  0  0
 26 52  1  0  0  0  0
 26 53  1  0  0  0  0
M  END
>  <minimizedAffinity>
-8.08591

$$$$

 OpenBabel09092411003D

 58 61  0  0  0  0  0  0  0  0999 V2000
   -3.3924  -51.6006   23.8669 N   0  3  1  0  0  0  0  0  0  0  0  0
   -3.2362  -51.6081   25.3586 C   0  0  0  0  0  0  0  0  0  0  0  0
   -1.8672  -51.6640   25.9691 C   0  0  0  0  0  0  0  0  0  0  0  0
   -0.6544  -51.7125   25.0878 N   0  0  0  0  0  0  0  0  0  0  0  0
    0.8115  -51.7721   25.4001 C   0  0  0  0  0  0  0  0  0  0  0  0
    1.5613  -51.8015   24.1012 N   0  0  0  0  0  0  0  0  0  0  0  0
    0.5588  -51.7600   22.9863 C   0  0  0  0  0  0  0  0  0  0  0  0
   -0.8106  -51.7050   23.5960 C   0  0  0  0  0  0  0  0  0  0  0  0
   -2.1796  -51.6491   22.9856 C   0  0  0  0  0  0  0  0  0  0  0  0
    0.8709  -51.7716   21.5191 C   0  0  0  0  0  0  0  0  0  0  0  0
    0.4785  -50.6065   20.6597 C   0  0  0  0  0  0  0  0  0  0  0  0
    0.7905  -50.6181   19.1926 C   0  0  0  0  0  0  0  0  0  0  0  0
    1.4950  -51.7948   18.5849 C   0  0  0  0  0  0  0  0  0  0  0  0
    1.8873  -52.9598   19.4443 C   0  0  0  0  0  0  0  0  0  0  0  0
    1.5753  -52.9482   20.9114 C   0  0  0  0  0  0  0  0  0  0  0  0
    1.4207  -51.7978   26.7706 C   0  0  0  0  0  0  0  0  0  0  0  0
    1.2852  -52.0153   28.2486 C   0  0  0  0  0  0  0  0  0  0  0  0
    2.6114  -51.6248   27.6665 C   0  0  0  0  0  0  0  0  0  0  0  0
   -5.4407  -52.8092   22.8209 C   0  0  0  0  0  0  0  0  0  0  0  0
   -4.7614  -51.5447   23.2564 C   0  0  2  0  0  0  0  0  0  0  0  0
   -5.4511  -50.2243   23.0813 C   0  0  0  0  0  0  0  0  0  0  0  0
   -4.6656  -48.9497   23.1735 O   0  0  0  0  0  0  0  0  0  0  0  0
   -6.9264  -50.1783   22.8140 N   0  0  0  0  0  0  0  0  0  0  0  0
   -7.6162  -48.8578   22.6390 C   0  0  0  0  0  0  0  0  0  0  0  0
   -7.7973  -48.7555   24.1244 C   0  0  0  0  0  0  0  0  0  0  0  0
   -7.4350  -48.9601   21.1535 C   0  0  0  0  0  0  0  0  0  0  0  0
   -8.3059  -47.5374   22.4640 C   0  0  0  0  0  0  0  0  0  0  0  0
   -3.6970  -50.6316   23.7740 H   0  0  0  0  0  0  0  0  0  0  0  0
   -3.7710  -52.4611   25.7209 H   0  0  0  0  0  0  0  0  0  0  0  0
   -3.5955  -50.6428   25.6483 H   0  0  0  0  0  0  0  0  0  0  0  0
   -1.8382  -52.5400   26.5829 H   0  0  0  0  0  0  0  0  0  0  0  0
   -1.7775  -50.7170   26.4590 H   0  0  0  0  0  0  0  0  0  0  0  0
   -2.2793  -52.5190   22.3706 H   0  0  0  0  0  0  0  0  0  0  0  0
   -2.1924  -50.6972   22.4971 H   0  0  0  0  0  0  0  0  0  0  0  0
   -0.0061  -49.7970   21.0778 H   0  0  0  0  0  0  0  0  0  0  0  0
    0.5205  -49.8166   18.6013 H   0  0  0  0  0  0  0  0  0  0  0  0
    1.7097  -51.8028   17.5755 H   0  0  0  0  0  0  0  0  0  0  0  0
    2.3719  -53.7694   19.0262 H   0  0  0  0  0  0  0  0  0  0  0  0
    1.8453  -53.7498   21.5027 H   0  0  0  0  0  0  0  0  0  0  0  0
    0.9862  -51.7795   25.7930 H   0  0  0  0  0  0  0  0  0  0  0  0
    1.1396  -53.0033   28.6328 H   0  0  0  0  0  0  0  0  0  0  0  0
    0.6509  -51.6234   29.0160 H   0  0  0  0  0  0  0  0  0  0  0  0
    3.4118  -52.3342   27.6355 H   0  0  0  0  0  0  0  0  0  0  0  0
    3.3149  -50.8390   27.8467 H   0  0  0  0  0  0  0  0  0  0  0  0
   -6.4016  -52.5754   22.4124 H   0  0  0  0  0  0  0  0  0  0  0  0
   -5.5596  -53.4585   23.6630 H   0  0  0  0  0  0  0  0  0  0  0  0
   -4.8455  -53.2957   22.0767 H   0  0  0  0  0  0  0  0  0  0  0  0
   -4.6053  -52.1905   24.0952 H   0  0  0  0  0  0  0  0  0  0  0  0
   -7.4420  -51.0148   22.7534 H   0  0  0  0  0  0  0  0  0  0  0  0
   -7.3765  -49.6192   24.5953 H   0  0  0  0  0  0  0  0  0  0  0  0
   -8.8409  -48.6973   24.3533 H   0  0  0  0  0  0  0  0  0  0  0  0
   -7.3037  -47.8770   24.4842 H   0  0  0  0  0  0  0  0  0  0  0  0
   -6.9280  -49.8725   20.9180 H   0  0  0  0  0  0  0  0  0  0  0  0
   -6.8552  -48.1302   20.8069 H   0  0  0  0  0  0  0  0  0  0  0  0
   -8.3924  -48.9505   20.6759 H   0  0  0  0  0  0  0  0  0  0  0  0
   -8.5917  -47.1547   23.4214 H   0  0  0  0  0  0  0  0  0  0  0  0
   -9.1776  -47.6680   21.8574 H   0  0  0  0  0  0  0  0  0  0  0  0
   -7.6404  -46.8476   21.9884 H   0  0  0  0  0  0  0  0  0  0  0  0
  1  2  1  0  0  0  0
  1 28  1  1  0  0  0
  2  3  1  0  0  0  0
  2 29  1  0  0  0  0
  2 30  1  0  0  0  0
  3  4  1  0  0  0  0
  3 31  1  0  0  0  0
  3 32  1  0  0  0  0
  4  5  1  0  0  0  0
  5 16  1  0  0  0  0
  5  6  2  0  0  0  0
  6  7  1  0  0  0  0
  7 10  1  0  0  0  0
  7  8  2  0  0  0  0
  8  9  1  0  0  0  0
  8  4  1  0  0  0  0
  9  1  1  0  0  0  0
  9 33  1  0  0  0  0
  9 34  1  0  0  0  0
 10 11  2  0  0  0  0
 11 12  1  0  0  0  0
 11 35  1  0  0  0  0
 12 13  2  0  0  0  0
 12 36  1  0  0  0  0
 13 14  1  0  0  0  0
 13 37  1  0  0  0  0
 14 15  2  0  0  0  0
 14 38  1  0  0  0  0
 15 10  1  0  0  0  0
 15 39  1  0  0  0  0
 16 17  1  0  0  0  0
 16 40  1  0  0  0  0
 17 18  1  0  0  0  0
 17 41  1  0  0  0  0
 17 42  1  0  0  0  0
 18 16  1  0  0  0  0
 18 43  1  0  0  0  0
 18 44  1  0  0  0  0
 19 45  1  0  0  0  0
 19 46  1  0  0  0  0
 19 47  1  0  0  0  0
 20 19  1  0  0  0  0
 20 21  1  0  0  0  0
 20  1  1  0  0  0  0
 20 48  1  1  0  0  0
 21 22  2  0  0  0  0
 21 23  1  0  0  0  0
 23 24  1  0  0  0  0
 23 49  1  0  0  0  0
 24 25  1  0  0  0  0
 24 26  1  0  0  0  0
 24 27  1  0  0  0  0
 25 50  1  0  0  0  0
 25 51  1  0  0  0  0
 25 52  1  0  0  0  0
 26 53  1  0  0  0  0
 26 54  1  0  0  0  0
 26 55  1  0  0  0  0
 27 56  1  0  0  0  0
 27 57  1  0  0  0  0
 27 58  1  0  0  0  0
M  CHG  1   1   1
M  END
>  <minimizedAffinity>
-7.80914

$$$$

 OpenBabel09092411003D

 60 63  0  0  0  0  0  0  0  0999 V2000
   -2.2491  -48.8550   22.4154 C   0  0  2  0  0  0  0  0  0  0  0  0
   -1.9247  -47.4685   21.9440 C   0  0  0  0  0  0  0  0  0  0  0  0
   -0.7928  -47.2480   20.9848 C   0  0  0  0  0  0  0  0  0  0  0  0
    0.0147  -48.4141   20.4969 C   0  0  0  0  0  0  0  0  0  0  0  0
   -0.3097  -49.8007   20.9682 N   0  0  0  0  0  0  0  0  0  0  0  0
   -1.4416  -50.0212   21.9275 C   0  0  0  0  0  0  0  0  0  0  0  0
    0.4978  -50.9668   20.4802 C   0  0  0  0  0  0  0  0  0  0  0  0
    1.0062  -50.9890   19.0691 N   0  0  0  0  0  0  0  0  0  0  0  0
    1.8137  -52.1550   18.5811 C   0  0  0  0  0  0  0  0  0  0  0  0
    2.1130  -53.2989   19.5041 N   0  0  0  0  0  0  0  0  0  0  0  0
    1.6046  -53.2767   20.9152 C   0  0  0  0  0  0  0  0  0  0  0  0
    0.7971  -52.1107   21.4032 C   0  0  0  0  0  0  0  0  0  0  0  0
    0.4327  -52.3663   22.8357 C   0  0  0  0  0  0  0  0  0  0  0  0
    1.0150  -53.6903   23.2329 C   0  0  0  0  0  0  0  0  0  0  0  0
    1.7393  -54.2530   22.0460 C   0  0  0  0  0  0  0  0  0  0  0  0
    2.3221  -52.1772   17.1700 C   0  0  0  0  0  0  0  0  0  0  0  0
    3.4158  -52.4757   16.1878 C   0  0  0  0  0  0  0  0  0  0  0  0
    2.1089  -51.9172   15.7082 C   0  0  0  0  0  0  0  0  0  0  0  0
   -4.6989  -49.5884   22.8746 C   0  0  0  0  0  0  0  0  0  0  0  0
   -3.3810  -49.0754   23.3747 N   0  0  0  0  0  0  0  0  0  0  0  0
   -3.1950  -48.7829   24.8340 C   0  0  0  0  0  0  0  0  0  0  0  0
   -1.8771  -48.2700   25.3342 O   0  0  0  0  0  0  0  0  0  0  0  0
   -4.3269  -49.0033   25.7935 N   0  0  0  0  0  0  0  0  0  0  0  0
   -4.1409  -48.7108   27.2528 C   0  0  0  0  0  0  0  0  0  0  0  0
   -3.5161  -50.0610   27.4439 C   0  0  0  0  0  0  0  0  0  0  0  0
   -4.7657  -47.3605   27.0617 C   0  0  0  0  0  0  0  0  0  0  0  0
   -3.9549  -48.4182   28.7122 C   0  0  0  0  0  0  0  0  0  0  0  0
   -2.0784  -47.9715   22.9944 H   0  0  0  0  0  0  0  0  0  0  0  0
   -1.7076  -46.8885   22.8166 H   0  0  0  0  0  0  0  0  0  0  0  0
   -2.7874  -47.1946   21.3734 H   0  0  0  0  0  0  0  0  0  0  0  0
   -0.1094  -46.5773   21.4623 H   0  0  0  0  0  0  0  0  0  0  0  0
   -1.2844  -46.9017   20.0997 H   0  0  0  0  0  0  0  0  0  0  0  0
    1.0306  -48.2236   20.7735 H   0  0  0  0  0  0  0  0  0  0  0  0
   -0.2121  -48.4502   19.4518 H   0  0  0  0  0  0  0  0  0  0  0  0
   -1.0254  -50.4926   22.7932 H   0  0  0  0  0  0  0  0  0  0  0  0
   -2.1459  -50.5844   21.3516 H   0  0  0  0  0  0  0  0  0  0  0  0
   -0.6318  -52.3916   22.9406 H   0  0  0  0  0  0  0  0  0  0  0  0
    0.8172  -51.5883   23.4616 H   0  0  0  0  0  0  0  0  0  0  0  0
    0.2324  -54.3567   23.5301 H   0  0  0  0  0  0  0  0  0  0  0  0
    1.6881  -53.5685   24.0557 H   0  0  0  0  0  0  0  0  0  0  0  0
    1.3074  -55.1918   21.7686 H   0  0  0  0  0  0  0  0  0  0  0  0
    2.7714  -54.4101   22.2805 H   0  0  0  0  0  0  0  0  0  0  0  0
    1.9595  -52.1613   18.1766 H   0  0  0  0  0  0  0  0  0  0  0  0
    3.6765  -53.4902   15.9693 H   0  0  0  0  0  0  0  0  0  0  0  0
    4.4424  -52.1906   16.0888 H   0  0  0  0  0  0  0  0  0  0  0  0
    1.4373  -52.5333   15.1476 H   0  0  0  0  0  0  0  0  0  0  0  0
    1.8170  -51.0687   15.1253 H   0  0  0  0  0  0  0  0  0  0  0  0
   -5.3795  -49.6823   23.6948 H   0  0  0  0  0  0  0  0  0  0  0  0
   -4.5586  -50.5450   22.4162 H   0  0  0  0  0  0  0  0  0  0  0  0
   -5.0987  -48.9038   22.1560 H   0  0  0  0  0  0  0  0  0  0  0  0
   -5.1919  -49.3400   25.4653 H   0  0  0  0  0  0  0  0  0  0  0  0
   -3.4926  -50.5788   26.5079 H   0  0  0  0  0  0  0  0  0  0  0  0
   -4.0918  -50.6239   28.1486 H   0  0  0  0  0  0  0  0  0  0  0  0
   -2.5182  -49.9434   27.8116 H   0  0  0  0  0  0  0  0  0  0  0  0
   -5.0393  -47.2362   26.0348 H   0  0  0  0  0  0  0  0  0  0  0  0
   -4.0649  -46.6008   27.3385 H   0  0  0  0  0  0  0  0  0  0  0  0
   -5.6386  -47.2813   27.6755 H   0  0  0  0  0  0  0  0  0  0  0  0
   -3.4905  -49.2567   29.1877 H   0  0  0  0  0  0  0  0  0  0  0  0
   -4.9076  -48.2348   29.1634 H   0  0  0  0  0  0  0  0  0  0  0  0
   -3.3339  -47.5543   28.8265 H   0  0  0  0  0  0  0  0  0  0  0  0
  1 20  1  0  0  0  0
  1  2  1  0  0  0  0
  1 28  1  1  0  0  0
  2  3  1  0  0  0  0
  2 29  1  0  0  0  0
  2 30  1  0  0  0  0
  3  4  1  0  0  0  0
  3 31  1  0  0  0  0
  3 32  1  0  0  0  0
  4  5  1  0  0  0  0
  4 33  1  0  0  0  0
  4 34  1  0  0  0  0
  5  7  1  0  0  0  0
  5  6  1  0  0  0  0
  6  1  1  0  0  0  0
  6 35  1  0  0  0  0
  6 36  1  0  0  0  0
  7  8  2  0  0  0  0
  8  9  1  0  0  0  0
  9 16  1  0  0  0  0
  9 10  2  0  0  0  0
 10 11  1  0  0  0  0
 11 12  2  0  0  0  0
 12 13  1  0  0  0  0
 12  7  1  0  0  0  0
 13 14  1  0  0  0  0
 13 37  1  0  0  0  0
 13 38  1  0  0  0  0
 14 15  1  0  0  0  0
 14 39  1  0  0  0  0
 14 40  1  0  0  0  0
 15 11  1  0  0  0  0
 15 41  1  0  0  0  0
 15 42  1  0  0  0  0
 16 17  1  0  0  0  0
 16 43  1  0  0  0  0
 17 18  1  0  0  0  0
 17 44  1  0  0  0  0
 17 45  1  0  0  0  0
 18 16  1  0  0  0  0
 18 46  1  0  0  0  0
 18 47  1  0  0  0  0
 19 20  1  0  0  0  0
 19 48  1  0  0  0  0
 19 49  1  0  0  0  0
 19 50  1  0  0  0  0
 20 21  1  0  0  0  0
 21 22  2  0  0  0  0
 21 23  1  0  0  0  0
 23 24  1  0  0  0  0
 23 51  1  0  0  0  0
 24 25  1  0  0  0  0
 24 26  1  0  0  0  0
 24 27  1  0  0  0  0
 25 52  1  0  0  0  0
 25 53  1  0  0  0  0
 25 54  1  0  0  0  0
 26 55  1  0  0  0  0
 26 56  1  0  0  0  0
 26 57  1  0  0  0  0
 27 58  1  0  0  0  0
 27 59  1  0  0  0  0
 27 60  1  0  0  0  0
M  END
>  <minimizedAffinity>
-7.78242

$$$$

 OpenBabel09092411003D

 50 52  0  0  0  0  0  0  0  0999 V2000
    0.7155  -51.7126   24.9313 N   0  0  0  0  0  0  0  0  0  0  0  0
    0.1200  -51.1222   23.6876 C   0  0  0  0  0  0  0  0  0  0  0  0
   -0.6486  -49.8362   23.7615 N   0  0  0  0  0  0  0  0  0  0  0  0
   -1.2440  -49.2458   22.5178 C   0  0  0  0  0  0  0  0  0  0  0  0
   -1.0708  -49.9413   21.2001 N   0  0  0  0  0  0  0  0  0  0  0  0
   -0.3022  -51.2274   21.1262 C   0  0  0  0  0  0  0  0  0  0  0  0
   -0.1290  -51.9229   19.8086 C   0  0  0  0  0  0  0  0  0  0  0  0
   -0.7245  -51.3325   18.5648 F   0  0  0  0  0  0  0  0  0  0  0  0
    0.6396  -53.2089   19.7347 C   0  0  0  0  0  0  0  0  0  0  0  0
    1.2350  -53.7993   20.9784 C   0  0  0  0  0  0  0  0  0  0  0  0
    1.0618  -53.1038   22.2960 C   0  0  0  0  0  0  0  0  0  0  0  0
    0.2932  -51.8178   22.3699 C   0  0  0  0  0  0  0  0  0  0  0  0
   -2.0126  -47.9597   22.5917 C   0  0  0  0  0  0  0  0  0  0  0  0
   -3.3214  -47.2315   22.6727 C   0  0  0  0  0  0  0  0  0  0  0  0
   -2.0351  -46.4607   22.6387 C   0  0  0  0  0  0  0  0  0  0  0  0
    0.0219  -54.1327   25.5731 C   0  0  0  0  0  0  0  0  0  0  0  0
   -0.0929  -52.6511   25.7773 C   0  0  1  0  0  0  0  0  0  0  0  0
   -1.0160  -52.1080   26.8276 C   0  0  0  0  0  0  0  0  0  0  0  0
   -0.5146  -51.8835   28.2234 O   0  0  0  0  0  0  0  0  0  0  0  0
   -2.4405  -51.7895   26.4820 N   0  0  0  0  0  0  0  0  0  0  0  0
   -3.3635  -51.2465   27.5323 C   0  0  0  0  0  0  0  0  0  0  0  0
   -2.9419  -52.0141   25.0863 C   0  0  0  0  0  0  0  0  0  0  0  0
    2.1193  -51.3645   25.3291 C   0  0  0  0  0  0  0  0  0  0  0  0
    2.5233  -51.4116   26.7729 C   0  0  0  0  0  0  0  0  0  0  0  0
    3.9189  -51.8130   27.1484 N   0  3  0  0  0  0  0  0  0  0  0  0
    0.7587  -53.6875   18.8282 H   0  0  0  0  0  0  0  0  0  0  0  0
    1.7638  -54.6840   20.9275 H   0  0  0  0  0  0  0  0  0  0  0  0
    1.4714  -53.5100   23.1517 H   0  0  0  0  0  0  0  0  0  0  0  0
   -1.4642  -48.8770   22.5390 H   0  0  0  0  0  0  0  0  0  0  0  0
   -3.8994  -47.2684   23.5724 H   0  0  0  0  0  0  0  0  0  0  0  0
   -4.2217  -47.2269   22.0945 H   0  0  0  0  0  0  0  0  0  0  0  0
   -1.6955  -45.9477   23.5142 H   0  0  0  0  0  0  0  0  0  0  0  0
   -1.6378  -45.6785   22.0262 H   0  0  0  0  0  0  0  0  0  0  0  0
   -0.6231  -54.6386   26.2608 H   0  0  0  0  0  0  0  0  0  0  0  0
    1.0333  -54.4387   25.7417 H   0  0  0  0  0  0  0  0  0  0  0  0
   -0.2625  -54.3777   24.5711 H   0  0  0  0  0  0  0  0  0  0  0  0
   -1.0775  -52.5019   25.3860 H   0  0  0  0  0  0  0  0  0  0  0  0
   -2.8351  -51.1538   28.4581 H   0  0  0  0  0  0  0  0  0  0  0  0
   -4.1910  -51.9129   27.6591 H   0  0  0  0  0  0  0  0  0  0  0  0
   -3.7229  -50.2854   27.2290 H   0  0  0  0  0  0  0  0  0  0  0  0
   -2.1496  -52.4020   24.4808 H   0  0  0  0  0  0  0  0  0  0  0  0
   -3.2829  -51.0865   24.6762 H   0  0  0  0  0  0  0  0  0  0  0  0
   -3.7510  -52.7140   25.1063 H   0  0  0  0  0  0  0  0  0  0  0  0
    2.2973  -50.3651   24.9910 H   0  0  0  0  0  0  0  0  0  0  0  0
    2.7014  -52.1450   24.8853 H   0  0  0  0  0  0  0  0  0  0  0  0
    1.8630  -52.1011   27.2561 H   0  0  0  0  0  0  0  0  0  0  0  0
    2.4721  -50.3868   27.0762 H   0  0  0  0  0  0  0  0  0  0  0  0
    4.0712  -52.7896   26.8966 H   0  0  0  0  0  0  0  0  0  0  0  0
    4.0472  -51.6971   28.1536 H   0  0  0  0  0  0  0  0  0  0  0  0
    4.5874  -51.2252   26.6503 H   0  0  0  0  0  0  0  0  0  0  0  0
  1 23  1  0  0  0  0
  1  2  1  0  0  0  0
  2  3  2  0  0  0  0
  3  4  1  0  0  0  0
  4 13  1  0  0  0  0
  4  5  2  0  0  0  0
  5  6  1  0  0  0  0
  6  7  2  0  0  0  0
  7  8  1  0  0  0  0
  7  9  1  0  0  0  0
  9 10  2  0  0  0  0
  9 26  1  0  0  0  0
 10 11  1  0  0  0  0
 10 27  1  0  0  0  0
 11 12  2  0  0  0  0
 11 28  1  0  0  0  0
 12  2  1  0  0  0  0
 12  6  1  0  0  0  0
 13 14  1  0  0  0  0
 13 29  1  0  0  0  0
 14 15  1  0  0  0  0
 14 30  1  0  0  0  0
 14 31  1  0  0  0  0
 15 13  1  0  0  0  0
 15 32  1  0  0  0  0
 15 33  1  0  0  0  0
 16 34  1  0  0  0  0
 16 35  1  0  0  0  0
 16 36  1  0  0  0  0
 17 16  1  0  0  0  0
 17 18  1  0  0  0  0
 17  1  1  0  0  0  0
 17 37  1  6  0  0  0
 18 19  2  0  0  0  0
 18 20  1  0  0  0  0
 20 21  1  0  0  0  0
 20 22  1  0  0  0  0
 21 38  1  0  0  0  0
 21 39  1  0  0  0  0
 21 40  1  0  0  0  0
 22 41  1  0  0  0  0
 22 42  1  0  0  0  0
 22 43  1  0  0  0  0
 23 24  1  0  0  0  0
 23 44  1  0  0  0  0
 23 45  1  0  0  0  0
 24 25  1  0  0  0  0
 24 46  1  0  0  0  0
 24 47  1  0  0  0  0
 25 48  1  0  0  0  0
 25 49  1  0  0  0  0
 25 50  1  0  0  0  0
M  CHG  1  25   1
M  END
>  <minimizedAffinity>
-7.26647

$$$$

 OpenBabel09092411003D

 63 66  0  0  0  0  0  0  0  0999 V2000
   -2.1356  -49.5147   15.8966 N   0  3  2  0  0  0  0  0  0  0  0  0
   -0.7415  -48.9710   15.7924 C   0  0  0  0  0  0  0  0  0  0  0  0
    0.2103  -49.1224   16.9419 C   0  0  0  0  0  0  0  0  0  0  0  0
   -0.2320  -49.8174   18.1955 N   0  3  1  0  0  0  0  0  0  0  0  0
   -1.6262  -50.3611   18.2995 C   0  0  0  0  0  0  0  0  0  0  0  0
   -2.5779  -50.2097   17.1500 C   0  0  0  0  0  0  0  0  0  0  0  0
   -3.8735  -48.0959   14.5861 C   0  0  0  0  0  0  0  0  0  0  0  0
   -3.0874  -49.3633   14.7471 C   0  0  1  0  0  0  0  0  0  0  0  0
   -3.2531  -50.4793   13.7586 C   0  0  0  0  0  0  0  0  0  0  0  0
   -3.7855  -51.8073   14.2092 O   0  0  0  0  0  0  0  0  0  0  0  0
   -2.8865  -50.2673   12.3197 N   0  0  0  0  0  0  0  0  0  0  0  0
   -3.0522  -51.3833   11.3312 C   0  0  0  0  0  0  0  0  0  0  0  0
   -1.6449  -51.8285   11.5979 C   0  0  0  0  0  0  0  0  0  0  0  0
   -4.4596  -50.9380   11.0645 C   0  0  0  0  0  0  0  0  0  0  0  0
   -3.2180  -52.4993   10.3427 C   0  0  0  0  0  0  0  0  0  0  0  0
    0.7197  -49.9687   19.3448 C   0  0  0  0  0  0  0  0  0  0  0  0
    1.1242  -51.3367   19.8086 N   0  0  0  0  0  0  0  0  0  0  0  0
    1.7824  -52.3928   18.9712 C   0  0  0  0  0  0  0  0  0  0  0  0
    2.0065  -53.5975   19.8363 N   0  0  0  0  0  0  0  0  0  0  0  0
    1.4867  -53.2859   21.2085 C   0  0  0  0  0  0  0  0  0  0  0  0
    1.4396  -54.0940   22.4713 C   0  0  0  0  0  0  0  0  0  0  0  0
    0.8471  -53.5048   23.7170 C   0  0  0  0  0  0  0  0  0  0  0  0
    0.3018  -52.1075   23.6999 C   0  0  0  0  0  0  0  0  0  0  0  0
    0.3490  -51.2995   22.4371 C   0  0  0  0  0  0  0  0  0  0  0  0
    0.9415  -51.8886   21.1914 C   0  0  0  0  0  0  0  0  0  0  0  0
    2.1517  -52.2664   17.5228 C   0  0  0  0  0  0  0  0  0  0  0  0
    3.1983  -52.1592   16.4537 C   0  0  0  0  0  0  0  0  0  0  0  0
    1.7447  -52.1548   16.0834 C   0  0  0  0  0  0  0  0  0  0  0  0
   -2.2228  -49.7881   16.8754 H   0  0  0  0  0  0  0  0  0  0  0  0
   -0.8325  -47.9219   15.6028 H   0  0  0  0  0  0  0  0  0  0  0  0
   -0.2994  -49.5728   15.0260 H   0  0  0  0  0  0  0  0  0  0  0  0
    0.5114  -48.1356   17.2256 H   0  0  0  0  0  0  0  0  0  0  0  0
    0.9644  -49.7740   16.5525 H   0  0  0  0  0  0  0  0  0  0  0  0
    0.0953  -49.7059   19.1551 H   0  0  0  0  0  0  0  0  0  0  0  0
   -2.0815  -49.8845   19.1423 H   0  0  0  0  0  0  0  0  0  0  0  0
   -1.4742  -51.4188   18.3553 H   0  0  0  0  0  0  0  0  0  0  0  0
   -3.4252  -49.6707   17.5195 H   0  0  0  0  0  0  0  0  0  0  0  0
   -2.7379  -51.2177   16.8288 H   0  0  0  0  0  0  0  0  0  0  0  0
   -4.4943  -48.1691   13.7177 H   0  0  0  0  0  0  0  0  0  0  0  0
   -3.2012  -47.2708   14.4754 H   0  0  0  0  0  0  0  0  0  0  0  0
   -4.4857  -47.9437   15.4504 H   0  0  0  0  0  0  0  0  0  0  0  0
   -2.8895  -48.6380   15.5084 H   0  0  0  0  0  0  0  0  0  0  0  0
   -2.5371  -49.3957   12.0240 H   0  0  0  0  0  0  0  0  0  0  0  0
   -1.1988  -51.1838   12.3261 H   0  0  0  0  0  0  0  0  0  0  0  0
   -1.0795  -51.7866   10.6904 H   0  0  0  0  0  0  0  0  0  0  0  0
   -1.6524  -52.8326   11.9674 H   0  0  0  0  0  0  0  0  0  0  0  0
   -4.6827  -50.0816   11.6659 H   0  0  0  0  0  0  0  0  0  0  0  0
   -5.1365  -51.7304   11.3072 H   0  0  0  0  0  0  0  0  0  0  0  0
   -4.5635  -50.6844   10.0302 H   0  0  0  0  0  0  0  0  0  0  0  0
   -2.3109  -53.0641   10.2870 H   0  0  0  0  0  0  0  0  0  0  0  0
   -3.4442  -52.0919    9.3795 H   0  0  0  0  0  0  0  0  0  0  0  0
   -4.0171  -53.1379   10.6565 H   0  0  0  0  0  0  0  0  0  0  0  0
    0.2716  -49.4782   20.1835 H   0  0  0  0  0  0  0  0  0  0  0  0
    1.6318  -49.5583   18.9645 H   0  0  0  0  0  0  0  0  0  0  0  0
    1.8148  -55.0553   22.4831 H   0  0  0  0  0  0  0  0  0  0  0  0
    0.8146  -54.0608   24.5858 H   0  0  0  0  0  0  0  0  0  0  0  0
   -0.1058  -51.7021   24.5570 H   0  0  0  0  0  0  0  0  0  0  0  0
   -0.0262  -50.3382   22.4253 H   0  0  0  0  0  0  0  0  0  0  0  0
    1.8883  -52.3565   18.5559 H   0  0  0  0  0  0  0  0  0  0  0  0
    3.8085  -53.0053   16.2156 H   0  0  0  0  0  0  0  0  0  0  0  0
    4.0279  -51.5091   16.2696 H   0  0  0  0  0  0  0  0  0  0  0  0
    1.3180  -52.9978   15.5812 H   0  0  0  0  0  0  0  0  0  0  0  0
    1.1080  -51.5002   15.5257 H   0  0  0  0  0  0  0  0  0  0  0  0
  1  2  1  0  0  0  0
  1 29  1  1  0  0  0
  2  3  1  0  0  0  0
  2 30  1  0  0  0  0
  2 31  1  0  0  0  0
  3  4  1  0  0  0  0
  3 32  1  0  0  0  0
  3 33  1  0  0  0  0
  4 16  1  0  0  0  0
  4  5  1  0  0  0  0
  4 34  1  1  0  0  0
  5  6  1  0  0  0  0
  5 35  1  0  0  0  0
  5 36  1  0  0  0  0
  6  1  1  0  0  0  0
  6 37  1  0  0  0  0
  6 38  1  0  0  0  0
  7 39  1  0  0  0  0
  7 40  1  0  0  0  0
  7 41  1  0  0  0  0
  8  7  1  0  0  0  0
  8  9  1  0  0  0  0
  8  1  1  0  0  0  0
  8 42  1  1  0  0  0
  9 10  2  0  0  0  0
  9 11  1  0  0  0  0
 11 12  1  0  0  0  0
 11 43  1  0  0  0  0
 12 13  1  0  0  0  0
 12 14  1  0  0  0  0
 12 15  1  0  0  0  0
 13 44  1  0  0  0  0
 13 45  1  0  0  0  0
 13 46  1  0  0  0  0
 14 47  1  0  0  0  0
 14 48  1  0  0  0  0
 14 49  1  0  0  0  0
 15 50  1  0  0  0  0
 15 51  1  0  0  0  0
 15 52  1  0  0  0  0
 16 17  1  0  0  0  0
 16 53  1  0  0  0  0
 16 54  1  0  0  0  0
 17 18  1  0  0  0  0
 18 26  1  0  0  0  0
 18 19  2  0  0  0  0
 19 20  1  0  0  0  0
 20 21  2  0  0  0  0
 21 22  1  0  0  0  0
 21 55  1  0  0  0  0
 22 23  2  0  0  0  0
 22 56  1  0  0  0  0
 23 24  1  0  0  0  0
 23 57  1  0  0  0  0
 24 25  2  0  0  0  0
 24 58  1  0  0  0  0
 25 17  1  0  0  0  0
 25 20  1  0  0  0  0
 26 27  1  0  0  0  0
 26 59  1  0  0  0  0
 27 28  1  0  0  0  0
 27 60  1  0  0  0  0
 27 61  1  0  0  0  0
 28 26  1  0  0  0  0
 28 62  1  0  0  0  0
 28 63  1  0  0  0  0
M  CHG  2   1   1   4   1
M  END
>  <minimizedAffinity>
-8.53657

$$$$

 OpenBabel09092411003D

 60 63  0  0  0  0  0  0  0  0999 V2000
    0.5569  -50.9828   19.0780 C   0  0  0  0  0  0  0  0  0  0  0  0
    0.4248  -52.3486   19.6840 C   0  0  0  0  0  0  0  0  0  0  0  0
    0.0822  -52.4945   21.1371 C   0  0  0  0  0  0  0  0  0  0  0  0
   -0.1283  -51.2745   21.9841 N   0  0  0  0  0  0  0  0  0  0  0  0
    0.0038  -49.9088   21.3782 C   0  0  0  0  0  0  0  0  0  0  0  0
    0.3463  -49.7629   19.9251 C   0  0  0  0  0  0  0  0  0  0  0  0
   -0.4709  -51.4204   23.4372 C   0  0  0  0  0  0  0  0  0  0  0  0
    0.6216  -51.4739   24.4636 N   0  0  0  0  0  0  0  0  0  0  0  0
    0.2790  -51.6197   25.9167 C   0  0  0  0  0  0  0  0  0  0  0  0
   -1.1561  -51.7121   26.3433 N   0  0  0  0  0  0  0  0  0  0  0  0
   -2.2486  -51.6586   25.3168 C   0  0  0  0  0  0  0  0  0  0  0  0
   -3.6837  -51.7510   25.7435 C   0  0  0  0  0  0  0  0  0  0  0  0
   -4.7761  -51.6975   24.7170 C   0  0  0  0  0  0  0  0  0  0  0  0
   -4.4335  -51.5516   23.2640 C   0  0  0  0  0  0  0  0  0  0  0  0
   -2.9985  -51.4592   22.8374 C   0  0  0  0  0  0  0  0  0  0  0  0
   -1.9060  -51.5127   23.8638 C   0  0  0  0  0  0  0  0  0  0  0  0
    1.3716  -51.6732   26.9431 C   0  0  0  0  0  0  0  0  0  0  0  0
    2.8275  -51.5974   27.2957 C   0  0  0  0  0  0  0  0  0  0  0  0
    1.8079  -51.8418   28.3683 C   0  0  0  0  0  0  0  0  0  0  0  0
    0.8994  -50.8369   17.6250 N   0  3  2  0  0  0  0  0  0  0  0  0
    1.9189  -51.7427   17.0002 C   0  0  0  0  0  0  0  0  0  0  0  0
    0.2226  -49.7853   16.7967 C   0  0  0  0  0  0  0  0  0  0  0  0
   -1.5230  -49.6595   14.8765 N   0  0  0  0  0  0  0  0  0  0  0  0
   -1.1719  -50.0105   16.2920 C   0  0  0  0  0  0  0  0  0  0  0  0
   -2.2152  -50.5868   17.2028 O   0  0  0  0  0  0  0  0  0  0  0  0
   -3.9173  -48.7671   14.4064 C   0  0  0  0  0  0  0  0  0  0  0  0
   -2.9175  -49.8848   14.3718 C   0  0  0  0  0  0  0  0  0  0  0  0
   -3.3121  -51.2278   13.8326 C   0  0  0  0  0  0  0  0  0  0  0  0
    1.6237  -51.0550   19.0372 H   0  0  0  0  0  0  0  0  0  0  0  0
    1.3616  -52.8440   19.5363 H   0  0  0  0  0  0  0  0  0  0  0  0
   -0.4309  -52.7563   19.1875 H   0  0  0  0  0  0  0  0  0  0  0  0
    0.8780  -53.0499   21.5878 H   0  0  0  0  0  0  0  0  0  0  0  0
   -0.8858  -52.9501   21.1171 H   0  0  0  0  0  0  0  0  0  0  0  0
    0.7673  -49.3994   21.9282 H   0  0  0  0  0  0  0  0  0  0  0  0
   -0.9899  -49.5164   21.4373 H   0  0  0  0  0  0  0  0  0  0  0  0
    1.2508  -49.1933   19.8766 H   0  0  0  0  0  0  0  0  0  0  0  0
   -0.5351  -49.3228   19.5077 H   0  0  0  0  0  0  0  0  0  0  0  0
   -3.9194  -51.8514   26.7432 H   0  0  0  0  0  0  0  0  0  0  0  0
   -5.7635  -51.7611   25.0105 H   0  0  0  0  0  0  0  0  0  0  0  0
   -5.1851  -51.5148   22.5578 H   0  0  0  0  0  0  0  0  0  0  0  0
   -2.7628  -51.3588   21.8377 H   0  0  0  0  0  0  0  0  0  0  0  0
    0.5923  -51.6349   26.2109 H   0  0  0  0  0  0  0  0  0  0  0  0
    3.3411  -50.6598   27.2494 H   0  0  0  0  0  0  0  0  0  0  0  0
    3.7131  -52.0988   26.9653 H   0  0  0  0  0  0  0  0  0  0  0  0
    1.5941  -51.0786   29.0871 H   0  0  0  0  0  0  0  0  0  0  0  0
    1.6648  -52.5898   29.1199 H   0  0  0  0  0  0  0  0  0  0  0  0
   -0.0285  -50.4142   17.6528 H   0  0  0  0  0  0  0  0  0  0  0  0
    2.8229  -51.7100   17.5717 H   0  0  0  0  0  0  0  0  0  0  0  0
    2.1175  -51.4197   15.9997 H   0  0  0  0  0  0  0  0  0  0  0  0
    1.5434  -52.7445   16.9836 H   0  0  0  0  0  0  0  0  0  0  0  0
    0.1966  -48.8947   17.3892 H   0  0  0  0  0  0  0  0  0  0  0  0
    0.8077  -49.7633   15.9011 H   0  0  0  0  0  0  0  0  0  0  0  0
   -0.8382  -49.2813   14.2788 H   0  0  0  0  0  0  0  0  0  0  0  0
   -4.8497  -49.1102   14.0093 H   0  0  0  0  0  0  0  0  0  0  0  0
   -3.5583  -47.9490   13.8175 H   0  0  0  0  0  0  0  0  0  0  0  0
   -4.0571  -48.4447   15.4171 H   0  0  0  0  0  0  0  0  0  0  0  0
   -3.6135  -49.9680   13.5634 H   0  0  0  0  0  0  0  0  0  0  0  0
   -2.8001  -51.9946   14.3755 H   0  0  0  0  0  0  0  0  0  0  0  0
   -3.0492  -51.2877   12.7971 H   0  0  0  0  0  0  0  0  0  0  0  0
   -4.3685  -51.3591   13.9405 H   0  0  0  0  0  0  0  0  0  0  0  0
  1  2  1  0  0  0  0
  1 29  1  0  0  0  0
  2  3  1  0  0  0  0
  2 30  1  0  0  0  0
  2 31  1  0  0  0  0
  3  4  1  0  0  0  0
  3 32  1  0  0  0  0
  3 33  1  0  0  0  0
  4  7  1  0  0  0  0
  4  5  1  0  0  0  0
  5  6  1  0  0  0  0
  5 34  1  0  0  0  0
  5 35  1  0  0  0  0
  6  1  1  0  0  0  0
  6 36  1  0  0  0  0
  6 37  1  0  0  0  0
  7  8  2  0  0  0  0
  8  9  1  0  0  0  0
  9 17  1  0  0  0  0
  9 10  2  0  0  0  0
 10 11  1  0  0  0  0
 11 12  2  0  0  0  0
 12 13  1  0  0  0  0
 12 38  1  0  0  0  0
 13 14  2  0  0  0  0
 13 39  1  0  0  0  0
 14 15  1  0  0  0  0
 14 40  1  0  0  0  0
 15 16  2  0  0  0  0
 15 41  1  0  0  0  0
 16  7  1  0  0  0  0
 16 11  1  0  0  0  0
 17 18  1  0  0  0  0
 17 42  1  0  0  0  0
 18 19  1  0  0  0  0
 18 43  1  0  0  0  0
 18 44  1  0  0  0  0
 19 17  1  0  0  0  0
 19 45  1  0  0  0  0
 19 46  1  0  0  0  0
 20 21  1  0  0  0  0
 20  1  1  0  0  0  0
 20 47  1  6  0  0  0
 21 48  1  0  0  0  0
 21 49  1  0  0  0  0
 21 50  1  0  0  0  0
 22 20  1  0  0  0  0
 22 51  1  0  0  0  0
 22 52  1  0  0  0  0
 23 24  1  0  0  0  0
 23 53  1  0  0  0  0
 24 25  2  0  0  0  0
 24 22  1  0  0  0  0
 26 27  1  0  0  0  0
 26 54  1  0  0  0  0
 26 55  1  0  0  0  0
 26 56  1  0  0  0  0
 27 28  1  0  0  0  0
 27 23  1  0  0  0  0
 27 57  1  0  0  0  0
 28 58  1  0  0  0  0
 28 59  1  0  0  0  0
 28 60  1  0  0  0  0
M  CHG  1  20   1
M  END
>  <minimizedAffinity>
-8.80163

$$$$

 OpenBabel09092411003D

 60 63  0  0  0  0  0  0  0  0999 V2000
    0.0650  -51.4365   19.4054 C   0  0  2  0  0  0  0  0  0  0  0  0
    0.6667  -52.7978   19.2193 C   0  0  0  0  0  0  0  0  0  0  0  0
    1.0099  -53.6360   20.4150 C   0  0  0  0  0  0  0  0  0  0  0  0
    0.7513  -53.1129   21.7968 C   0  0  0  0  0  0  0  0  0  0  0  0
    0.1496  -51.7515   21.9829 N   0  0  0  0  0  0  0  0  0  0  0  0
   -0.1936  -50.9134   20.7872 C   0  0  0  0  0  0  0  0  0  0  0  0
   -2.0511  -49.6179   16.5832 N   0  0  0  0  0  0  0  0  0  0  0  0
   -1.7080  -50.4560   17.7789 C   0  0  0  0  0  0  0  0  0  0  0  0
   -2.7946  -51.1519   18.5439 O   0  0  0  0  0  0  0  0  0  0  0  0
   -0.2782  -50.5983   18.2097 N   0  0  0  0  0  0  0  0  0  0  0  0
    0.8083  -49.9025   17.4448 C   0  0  0  0  0  0  0  0  0  0  0  0
   -4.3535  -48.4305   16.7822 C   0  0  0  0  0  0  0  0  0  0  0  0
   -3.4810  -49.4756   16.1525 C   0  0  0  0  0  0  0  0  0  0  0  0
   -4.0382  -50.3784   15.0921 C   0  0  0  0  0  0  0  0  0  0  0  0
   -0.1090  -51.2283   23.3647 C   0  0  0  0  0  0  0  0  0  0  0  0
    0.7821  -51.6366   24.5002 C   0  0  0  0  0  0  0  0  0  0  0  0
    0.5235  -51.1134   25.8821 C   0  0  0  0  0  0  0  0  0  0  0  0
   -0.6261  -50.1819   26.1284 N   0  0  0  0  0  0  0  0  0  0  0  0
   -1.5172  -49.7736   24.9928 C   0  0  0  0  0  0  0  0  0  0  0  0
   -1.2586  -50.2968   23.6111 N   0  0  0  0  0  0  0  0  0  0  0  0
   -2.6668  -48.8421   25.2391 C   0  0  0  0  0  0  0  0  0  0  0  0
   -3.4258  -48.9128   26.5311 C   0  0  0  0  0  0  0  0  0  0  0  0
   -4.5755  -47.9813   26.7774 C   0  0  0  0  0  0  0  0  0  0  0  0
   -4.9661  -46.9792   25.7318 C   0  0  0  0  0  0  0  0  0  0  0  0
   -4.2071  -46.9085   24.4399 C   0  0  0  0  0  0  0  0  0  0  0  0
   -3.0574  -47.8400   24.1936 C   0  0  0  0  0  0  0  0  0  0  0  0
    1.4146  -51.5217   27.0175 C   0  0  0  0  0  0  0  0  0  0  0  0
    1.5835  -52.0580   28.4081 C   0  0  0  0  0  0  0  0  0  0  0  0
    2.7889  -51.6925   27.5936 C   0  0  0  0  0  0  0  0  0  0  0  0
    0.8505  -50.8853   18.9321 H   0  0  0  0  0  0  0  0  0  0  0  0
    1.5729  -52.6620   18.6669 H   0  0  0  0  0  0  0  0  0  0  0  0
   -0.1184  -53.3514   18.7481 H   0  0  0  0  0  0  0  0  0  0  0  0
    2.0575  -53.8454   20.3550 H   0  0  0  0  0  0  0  0  0  0  0  0
    0.3374  -54.4645   20.3358 H   0  0  0  0  0  0  0  0  0  0  0  0
    1.6924  -53.1069   22.3060 H   0  0  0  0  0  0  0  0  0  0  0  0
   -0.0061  -53.7698   22.1707 H   0  0  0  0  0  0  0  0  0  0  0  0
    0.3583  -50.0015   20.8805 H   0  0  0  0  0  0  0  0  0  0  0  0
   -1.2608  -50.8491   20.8301 H   0  0  0  0  0  0  0  0  0  0  0  0
   -1.3379  -49.1612   16.0811 H   0  0  0  0  0  0  0  0  0  0  0  0
    0.3782  -49.3563   16.6314 H   0  0  0  0  0  0  0  0  0  0  0  0
    1.4964  -50.6276   17.0633 H   0  0  0  0  0  0  0  0  0  0  0  0
    1.3253  -49.2272   18.0941 H   0  0  0  0  0  0  0  0  0  0  0  0
   -5.3325  -48.4773   16.3530 H   0  0  0  0  0  0  0  0  0  0  0  0
   -3.9332  -47.4622   16.6071 H   0  0  0  0  0  0  0  0  0  0  0  0
   -4.4172  -48.6065   17.8357 H   0  0  0  0  0  0  0  0  0  0  0  0
   -4.4226  -49.5013   16.6601 H   0  0  0  0  0  0  0  0  0  0  0  0
   -3.2852  -50.5724   14.3571 H   0  0  0  0  0  0  0  0  0  0  0  0
   -4.8777  -49.9059   14.6265 H   0  0  0  0  0  0  0  0  0  0  0  0
   -4.3491  -51.3008   15.5363 H   0  0  0  0  0  0  0  0  0  0  0  0
    1.5731  -52.2774   24.3307 H   0  0  0  0  0  0  0  0  0  0  0  0
   -3.1570  -49.6022   27.2504 H   0  0  0  0  0  0  0  0  0  0  0  0
   -5.0977  -48.0299   27.6662 H   0  0  0  0  0  0  0  0  0  0  0  0
   -5.7571  -46.3384   25.9013 H   0  0  0  0  0  0  0  0  0  0  0  0
   -4.4759  -46.2190   23.7206 H   0  0  0  0  0  0  0  0  0  0  0  0
   -2.5352  -47.7914   23.3048 H   0  0  0  0  0  0  0  0  0  0  0  0
    0.7791  -51.2305   26.2074 H   0  0  0  0  0  0  0  0  0  0  0  0
    1.3691  -53.0857   28.6149 H   0  0  0  0  0  0  0  0  0  0  0  0
    1.2123  -51.7862   29.3741 H   0  0  0  0  0  0  0  0  0  0  0  0
    3.4344  -52.4595   27.2194 H   0  0  0  0  0  0  0  0  0  0  0  0
    3.6337  -51.0520   27.7380 H   0  0  0  0  0  0  0  0  0  0  0  0
  1 10  1  0  0  0  0
  1  2  1  0  0  0  0
  1 30  1  1  0  0  0
  2  3  1  0  0  0  0
  2 31  1  0  0  0  0
  2 32  1  0  0  0  0
  3  4  1  0  0  0  0
  3 33  1  0  0  0  0
  3 34  1  0  0  0  0
  4  5  1  0  0  0  0
  4 35  1  0  0  0  0
  4 36  1  0  0  0  0
  5 15  1  0  0  0  0
  5  6  1  0  0  0  0
  6  1  1  0  0  0  0
  6 37  1  0  0  0  0
  6 38  1  0  0  0  0
  7  8  1  0  0  0  0
  7 39  1  0  0  0  0
  8  9  2  0  0  0  0
  8 10  1  0  0  0  0
 10 11  1  0  0  0  0
 11 40  1  0  0  0  0
 11 41  1  0  0  0  0
 11 42  1  0  0  0  0
 12 13  1  0  0  0  0
 12 43  1  0  0  0  0
 12 44  1  0  0  0  0
 12 45  1  0  0  0  0
 13 14  1  0  0  0  0
 13  7  1  0  0  0  0
 13 46  1  0  0  0  0
 14 47  1  0  0  0  0
 14 48  1  0  0  0  0
 14 49  1  0  0  0  0
 15 16  2  0  0  0  0
 16 17  1  0  0  0  0
 16 50  1  0  0  0  0
 17 27  1  0  0  0  0
 17 18  2  0  0  0  0
 18 19  1  0  0  0  0
 19 21  1  0  0  0  0
 19 20  2  0  0  0  0
 20 15  1  0  0  0  0
 21 22  2  0  0  0  0
 22 23  1  0  0  0  0
 22 51  1  0  0  0  0
 23 24  2  0  0  0  0
 23 52  1  0  0  0  0
 24 25  1  0  0  0  0
 24 53  1  0  0  0  0
 25 26  2  0  0  0  0
 25 54  1  0  0  0  0
 26 21  1  0  0  0  0
 26 55  1  0  0  0  0
 27 28  1  0  0  0  0
 27 56  1  0  0  0  0
 28 29  1  0  0  0  0
 28 57  1  0  0  0  0
 28 58  1  0  0  0  0
 29 27  1  0  0  0  0
 29 59  1  0  0  0  0
 29 60  1  0  0  0  0
M  END
>  <minimizedAffinity>
-7.71953

$$$$

 OpenBabel09092411003D

 57 60  0  0  0  0  0  0  0  0999 V2000
   -1.5438  -49.9756   23.1655 C   0  0  0  0  0  0  0  0  0  0  0  0
   -2.0853  -48.6082   23.4601 N   0  0  0  0  0  0  0  0  0  0  0  0
   -1.7297  -47.4532   22.5716 C   0  0  0  0  0  0  0  0  0  0  0  0
   -0.8326  -47.6656   21.3883 N   0  0  0  0  0  0  0  0  0  0  0  0
   -0.2911  -49.0331   21.0937 C   0  0  0  0  0  0  0  0  0  0  0  0
    0.6088  -49.5437   20.0076 S   0  0  0  0  0  0  0  0  0  0  0  0
    0.8093  -51.0143   20.2249 C   0  0  0  0  0  0  0  0  0  0  0  0
    0.0334  -51.4126   21.4453 C   0  0  0  0  0  0  0  0  0  0  0  0
   -0.6467  -50.1881   21.9823 C   0  0  0  0  0  0  0  0  0  0  0  0
    0.2339  -52.8831   21.6627 C   0  0  0  0  0  0  0  0  0  0  0  0
    1.1337  -53.3937   20.5766 C   0  0  0  0  0  0  0  0  0  0  0  0
    1.4893  -52.2387   19.6880 C   0  0  0  0  0  0  0  0  0  0  0  0
   -1.2392  -52.8365   25.8992 N   0  0  0  0  0  0  0  0  0  0  0  0
   -0.8837  -51.6815   25.0105 C   0  0  0  0  0  0  0  0  0  0  0  0
    0.4876  -51.0775   25.0783 O   0  0  0  0  0  0  0  0  0  0  0  0
   -1.8994  -51.1306   24.0541 N   0  0  0  0  0  0  0  0  0  0  0  0
    0.2822  -54.7895   26.6870 C   0  0  0  0  0  0  0  0  0  0  0  0
   -0.2235  -53.3874   26.8555 C   0  0  0  0  0  0  0  0  0  0  0  0
    0.2866  -52.5363   27.9804 C   0  0  0  0  0  0  0  0  0  0  0  0
   -3.2707  -51.7346   23.9863 C   0  0  0  0  0  0  0  0  0  0  0  0
   -4.3134  -51.3427   24.9908 C   0  0  0  0  0  0  0  0  0  0  0  0
   -4.4266  -49.9148   25.4363 N   0  3  0  0  0  0  0  0  0  0  0  0
   -5.3059  -48.9615   24.6825 C   0  0  0  0  0  0  0  0  0  0  0  0
   -3.6605  -49.4402   26.6353 C   0  0  0  0  0  0  0  0  0  0  0  0
   -2.2712  -46.0857   22.8662 C   0  0  0  0  0  0  0  0  0  0  0  0
   -3.4326  -45.1858   23.1684 C   0  0  0  0  0  0  0  0  0  0  0  0
   -2.0478  -44.6171   23.0743 C   0  0  0  0  0  0  0  0  0  0  0  0
   -0.7085  -53.3882   21.6209 H   0  0  0  0  0  0  0  0  0  0  0  0
    0.6721  -53.0606   22.6226 H   0  0  0  0  0  0  0  0  0  0  0  0
    0.6270  -54.1460   20.0090 H   0  0  0  0  0  0  0  0  0  0  0  0
    2.0179  -53.8243   20.9982 H   0  0  0  0  0  0  0  0  0  0  0  0
    1.1547  -52.4318   18.6902 H   0  0  0  0  0  0  0  0  0  0  0  0
    2.5497  -52.0969   19.6692 H   0  0  0  0  0  0  0  0  0  0  0  0
   -2.1393  -53.2329   25.8548 H   0  0  0  0  0  0  0  0  0  0  0  0
    0.9949  -55.0063   27.4551 H   0  0  0  0  0  0  0  0  0  0  0  0
    0.7490  -54.8876   25.7292 H   0  0  0  0  0  0  0  0  0  0  0  0
   -0.5366  -55.4748   26.7565 H   0  0  0  0  0  0  0  0  0  0  0  0
   -0.6054  -52.5513   26.3078 H   0  0  0  0  0  0  0  0  0  0  0  0
    0.7474  -53.1592   28.7183 H   0  0  0  0  0  0  0  0  0  0  0  0
   -0.5290  -52.0032   28.4225 H   0  0  0  0  0  0  0  0  0  0  0  0
    1.0053  -51.8394   27.6028 H   0  0  0  0  0  0  0  0  0  0  0  0
   -3.1459  -52.7942   24.0680 H   0  0  0  0  0  0  0  0  0  0  0  0
   -3.6614  -51.3549   23.0654 H   0  0  0  0  0  0  0  0  0  0  0  0
   -4.1314  -51.9267   25.8687 H   0  0  0  0  0  0  0  0  0  0  0  0
   -5.2326  -51.5113   24.4696 H   0  0  0  0  0  0  0  0  0  0  0  0
   -4.7663  -50.1565   26.3672 H   0  0  0  0  0  0  0  0  0  0  0  0
   -4.8770  -48.7638   23.7224 H   0  0  0  0  0  0  0  0  0  0  0  0
   -5.3916  -48.0463   25.2301 H   0  0  0  0  0  0  0  0  0  0  0  0
   -6.2764  -49.3944   24.5573 H   0  0  0  0  0  0  0  0  0  0  0  0
   -2.8089  -48.8773   26.3146 H   0  0  0  0  0  0  0  0  0  0  0  0
   -3.3355  -50.2838   27.2077 H   0  0  0  0  0  0  0  0  0  0  0  0
   -4.2906  -48.8209   27.2390 H   0  0  0  0  0  0  0  0  0  0  0  0
   -1.8848  -47.0611   22.6560 H   0  0  0  0  0  0  0  0  0  0  0  0
   -3.9230  -45.2457   24.1175 H   0  0  0  0  0  0  0  0  0  0  0  0
   -4.3701  -44.9764   22.6972 H   0  0  0  0  0  0  0  0  0  0  0  0
   -1.5504  -44.2713   23.9563 H   0  0  0  0  0  0  0  0  0  0  0  0
   -1.5883  -43.8340   22.5081 H   0  0  0  0  0  0  0  0  0  0  0  0
  1  2  2  0  0  0  0
  2  3  1  0  0  0  0
  3 25  1  0  0  0  0
  3  4  2  0  0  0  0
  4  5  1  0  0  0  0
  5  6  1  0  0  0  0
  6  7  1  0  0  0  0
  7  8  2  0  0  0  0
  8  9  1  0  0  0  0
  8 10  1  0  0  0  0
  9  1  1  0  0  0  0
  9  5  2  0  0  0  0
 10 11  1  0  0  0  0
 10 28  1  0  0  0  0
 10 29  1  0  0  0  0
 11 12  1  0  0  0  0
 11 30  1  0  0  0  0
 11 31  1  0  0  0  0
 12  7  1  0  0  0  0
 12 32  1  0  0  0  0
 12 33  1  0  0  0  0
 13 14  1  0  0  0  0
 13 34  1  0  0  0  0
 14 15  2  0  0  0  0
 14 16  1  0  0  0  0
 16 20  1  0  0  0  0
 16  1  1  0  0  0  0
 17 18  1  0  0  0  0
 17 35  1  0  0  0  0
 17 36  1  0  0  0  0
 17 37  1  0  0  0  0
 18 19  1  0  0  0  0
 18 13  1  0  0  0  0
 18 38  1  0  0  0  0
 19 39  1  0  0  0  0
 19 40  1  0  0  0  0
 19 41  1  0  0  0  0
 20 21  1  0  0  0  0
 20 42  1  0  0  0  0
 20 43  1  0  0  0  0
 21 22  1  0  0  0  0
 21 44  1  0  0  0  0
 21 45  1  0  0  0  0
 22 23  1  0  0  0  0
 22 24  1  0  0  0  0
 22 46  1  0  0  0  0
 23 47  1  0  0  0  0
 23 48  1  0  0  0  0
 23 49  1  0  0  0  0
 24 50  1  0  0  0  0
 24 51  1  0  0  0  0
 24 52  1  0  0  0  0
 25 26  1  0  0  0  0
 25 53  1  0  0  0  0
 26 27  1  0  0  0  0
 26 54  1  0  0  0  0
 26 55  1  0  0  0  0
 27 25  1  0  0  0  0
 27 56  1  0  0  0  0
 27 57  1  0  0  0  0
M  CHG  1  22   1
M  END
>  <minimizedAffinity>
-7.42304

$$$$

 OpenBabel09092411003D

 48 51  0  0  0  0  0  0  0  0999 V2000
    1.5417  -52.3419   18.7115 C   0  0  0  0  0  0  0  0  0  0  0  0
    0.8784  -51.6693   19.8767 C   0  0  0  0  0  0  0  0  0  0  0  0
    0.6702  -52.2654   21.2373 C   0  0  0  0  0  0  0  0  0  0  0  0
   -0.0301  -51.2470   22.0874 N   0  0  0  0  0  0  0  0  0  0  0  0
   -0.2547  -50.0216   21.2521 C   0  0  0  0  0  0  0  0  0  0  0  0
   -0.9234  -48.7571   21.7037 N   0  0  0  0  0  0  0  0  0  0  0  0
    0.3068  -50.2825   19.8858 C   0  0  0  0  0  0  0  0  0  0  0  0
   -0.4348  -51.4232   23.5210 C   0  0  0  0  0  0  0  0  0  0  0  0
    0.6123  -51.4923   24.5928 N   0  0  0  0  0  0  0  0  0  0  0  0
    0.2077  -51.6685   26.0264 C   0  0  0  0  0  0  0  0  0  0  0  0
   -1.2440  -51.7757   26.3882 N   0  0  0  0  0  0  0  0  0  0  0  0
   -2.2912  -51.7066   25.3164 C   0  0  0  0  0  0  0  0  0  0  0  0
   -3.7429  -51.8138   25.6782 C   0  0  0  0  0  0  0  0  0  0  0  0
   -4.7900  -51.7448   24.6064 C   0  0  0  0  0  0  0  0  0  0  0  0
   -4.3854  -51.5686   23.1728 C   0  0  0  0  0  0  0  0  0  0  0  0
   -2.9337  -51.4614   22.8110 C   0  0  0  0  0  0  0  0  0  0  0  0
   -1.8866  -51.5304   23.8828 C   0  0  0  0  0  0  0  0  0  0  0  0
    1.2549  -51.7375   27.0982 C   0  0  0  0  0  0  0  0  0  0  0  0
    1.6314  -51.9482   28.5348 C   0  0  0  0  0  0  0  0  0  0  0  0
    2.6920  -51.6463   27.5180 C   0  0  0  0  0  0  0  0  0  0  0  0
    0.2981  -49.3248   18.7314 C   0  0  0  0  0  0  0  0  0  0  0  0
   -0.3410  -49.7205   17.4333 N   0  3  0  0  0  0  0  0  0  0  0  0
    0.4923  -49.8356   16.1914 C   0  0  0  0  0  0  0  0  0  0  0  0
   -1.8134  -50.0011   17.3772 C   0  0  0  0  0  0  0  0  0  0  0  0
    1.8505  -53.3260   18.9962 H   0  0  0  0  0  0  0  0  0  0  0  0
    2.3965  -51.7730   18.4105 H   0  0  0  0  0  0  0  0  0  0  0  0
    0.8513  -52.4065   17.8966 H   0  0  0  0  0  0  0  0  0  0  0  0
    0.9582  -53.2103   21.5361 H   0  0  0  0  0  0  0  0  0  0  0  0
   -1.2612  -48.6809   22.6253 H   0  0  0  0  0  0  0  0  0  0  0  0
   -1.0245  -48.0033   21.0785 H   0  0  0  0  0  0  0  0  0  0  0  0
   -4.0213  -51.9350   26.6645 H   0  0  0  0  0  0  0  0  0  0  0  0
   -5.7888  -51.8186   24.8553 H   0  0  0  0  0  0  0  0  0  0  0  0
   -5.1058  -51.5211   22.4354 H   0  0  0  0  0  0  0  0  0  0  0  0
   -2.6553  -51.3402   21.8247 H   0  0  0  0  0  0  0  0  0  0  0  0
    0.5080  -51.6883   26.3336 H   0  0  0  0  0  0  0  0  0  0  0  0
    1.5671  -52.9249   28.9670 H   0  0  0  0  0  0  0  0  0  0  0  0
    1.3318  -51.5161   29.4667 H   0  0  0  0  0  0  0  0  0  0  0  0
    3.3843  -52.4077   27.2249 H   0  0  0  0  0  0  0  0  0  0  0  0
    3.4623  -50.9096   27.4241 H   0  0  0  0  0  0  0  0  0  0  0  0
    1.3200  -49.0931   18.5146 H   0  0  0  0  0  0  0  0  0  0  0  0
   -0.3243  -48.5267   19.0787 H   0  0  0  0  0  0  0  0  0  0  0  0
    0.3359  -49.4873   16.7068 H   0  0  0  0  0  0  0  0  0  0  0  0
    0.2708  -50.7586   15.6976 H   0  0  0  0  0  0  0  0  0  0  0  0
    1.5293  -49.8115   16.4542 H   0  0  0  0  0  0  0  0  0  0  0  0
    0.2712  -49.0187   15.5366 H   0  0  0  0  0  0  0  0  0  0  0  0
   -2.1748  -50.2084   18.3628 H   0  0  0  0  0  0  0  0  0  0  0  0
   -1.9915  -50.8471   16.7468 H   0  0  0  0  0  0  0  0  0  0  0  0
   -2.3243  -49.1480   16.9821 H   0  0  0  0  0  0  0  0  0  0  0  0
  1  2  1  0  0  0  0
  1 25  1  0  0  0  0
  1 26  1  0  0  0  0
  1 27  1  0  0  0  0
  2  3  2  0  0  0  0
  3  4  1  0  0  0  0
  3 28  1  0  0  0  0
  4  8  1  0  0  0  0
  4  5  1  0  0  0  0
  5  6  1  0  0  0  0
  5  7  2  0  0  0  0
  6 29  1  0  0  0  0
  6 30  1  0  0  0  0
  7 21  1  0  0  0  0
  7  2  1  0  0  0  0
  8  9  2  0  0  0  0
  9 10  1  0  0  0  0
 10 18  1  0  0  0  0
 10 11  2  0  0  0  0
 11 12  1  0  0  0  0
 12 13  2  0  0  0  0
 13 14  1  0  0  0  0
 13 31  1  0  0  0  0
 14 15  2  0  0  0  0
 14 32  1  0  0  0  0
 15 16  1  0  0  0  0
 15 33  1  0  0  0  0
 16 17  2  0  0  0  0
 16 34  1  0  0  0  0
 17  8  1  0  0  0  0
 17 12  1  0  0  0  0
 18 19  1  0  0  0  0
 18 35  1  0  0  0  0
 19 20  1  0  0  0  0
 19 36  1  0  0  0  0
 19 37  1  0  0  0  0
 20 18  1  0  0  0  0
 20 38  1  0  0  0  0
 20 39  1  0  0  0  0
 21 22  1  0  0  0  0
 21 40  1  0  0  0  0
 21 41  1  0  0  0  0
 22 23  1  0  0  0  0
 22 24  1  0  0  0  0
 22 42  1  0  0  0  0
 23 43  1  0  0  0  0
 23 44  1  0  0  0  0
 23 45  1  0  0  0  0
 24 46  1  0  0  0  0
 24 47  1  0  0  0  0
 24 48  1  0  0  0  0
M  CHG  1  22   1
M  END
>  <minimizedAffinity>
-7.66832

$$$$

 OpenBabel09092411003D

 59 62  0  0  0  0  0  0  0  0999 V2000
   -1.8353  -48.3788   22.8039 C   0  0  1  0  0  0  0  0  0  0  0  0
   -1.5780  -47.0489   22.1596 C   0  0  0  0  0  0  0  0  0  0  0  0
   -0.6334  -46.9482   20.9987 C   0  0  0  0  0  0  0  0  0  0  0  0
    0.0539  -48.1773   20.4822 C   0  0  0  0  0  0  0  0  0  0  0  0
   -0.2034  -49.5073   21.1266 N   0  0  0  0  0  0  0  0  0  0  0  0
   -1.1480  -49.6080   22.2874 C   0  0  0  0  0  0  0  0  0  0  0  0
    0.4839  -50.7364   20.6101 C   0  0  0  0  0  0  0  0  0  0  0  0
    0.9032  -50.8129   19.1719 N   0  0  0  0  0  0  0  0  0  0  0  0
    1.5905  -52.0420   18.6554 C   0  0  0  0  0  0  0  0  0  0  0  0
    1.8585  -53.1947   19.5770 N   0  0  0  0  0  0  0  0  0  0  0  0
    1.4393  -53.1183   21.0153 C   0  0  0  0  0  0  0  0  0  0  0  0
    1.7073  -54.2709   21.9369 C   0  0  0  0  0  0  0  0  0  0  0  0
    1.2880  -54.1945   23.3751 C   0  0  0  0  0  0  0  0  0  0  0  0
    0.6007  -52.9653   23.8916 C   0  0  0  0  0  0  0  0  0  0  0  0
    0.3327  -51.8126   22.9699 C   0  0  0  0  0  0  0  0  0  0  0  0
    0.7519  -51.8891   21.5318 C   0  0  0  0  0  0  0  0  0  0  0  0
    2.0098  -52.1185   17.2172 C   0  0  0  0  0  0  0  0  0  0  0  0
    1.6857  -51.9715   15.7600 C   0  0  0  0  0  0  0  0  0  0  0  0
    3.0600  -52.3979   16.1833 C   0  0  0  0  0  0  0  0  0  0  0  0
   -2.7799  -48.4796   23.9648 N   0  3  1  0  0  0  0  0  0  0  0  0
   -4.2609  -48.4955   23.7274 C   0  0  0  0  0  0  0  0  0  0  0  0
   -2.2435  -48.5645   25.3630 C   0  0  0  0  0  0  0  0  0  0  0  0
   -1.6677  -49.8541   25.8683 C   0  0  0  0  0  0  0  0  0  0  0  0
   -2.8682  -51.9768   24.9723 C   0  0  0  0  0  0  0  0  0  0  0  0
   -2.5626  -51.0355   26.0995 N   0  3  0  0  0  0  0  0  0  0  0  0
   -3.1519  -51.2756   27.4578 C   0  0  0  0  0  0  0  0  0  0  0  0
   -1.9899  -47.6968   21.9940 H   0  0  0  0  0  0  0  0  0  0  0  0
   -1.1979  -46.4037   22.9239 H   0  0  0  0  0  0  0  0  0  0  0  0
   -2.5246  -46.7969   21.7291 H   0  0  0  0  0  0  0  0  0  0  0  0
    0.1356  -46.2615   21.2849 H   0  0  0  0  0  0  0  0  0  0  0  0
   -1.2703  -46.6633   20.1874 H   0  0  0  0  0  0  0  0  0  0  0  0
    1.1060  -47.9968   20.5557 H   0  0  0  0  0  0  0  0  0  0  0  0
   -0.3575  -48.2954   19.5016 H   0  0  0  0  0  0  0  0  0  0  0  0
   -0.5909  -50.0167   23.1044 H   0  0  0  0  0  0  0  0  0  0  0  0
   -1.9536  -50.1952   21.8987 H   0  0  0  0  0  0  0  0  0  0  0  0
    2.1802  -55.1165   21.5815 H   0  0  0  0  0  0  0  0  0  0  0  0
    1.4724  -54.9876   24.0092 H   0  0  0  0  0  0  0  0  0  0  0  0
    0.3122  -52.9127   24.8811 H   0  0  0  0  0  0  0  0  0  0  0  0
   -0.1401  -50.9669   23.3253 H   0  0  0  0  0  0  0  0  0  0  0  0
    1.7108  -52.0640   18.2431 H   0  0  0  0  0  0  0  0  0  0  0  0
    1.5325  -50.9987   15.3415 H   0  0  0  0  0  0  0  0  0  0  0  0
    0.9373  -52.3701   15.1074 H   0  0  0  0  0  0  0  0  0  0  0  0
    3.8872  -51.7293   16.0667 H   0  0  0  0  0  0  0  0  0  0  0  0
    3.6981  -53.2267   15.9577 H   0  0  0  0  0  0  0  0  0  0  0  0
   -2.2854  -48.3715   24.8504 H   0  0  0  0  0  0  0  0  0  0  0  0
   -4.4533  -48.6268   22.6831 H   0  0  0  0  0  0  0  0  0  0  0  0
   -4.6845  -47.5689   24.0544 H   0  0  0  0  0  0  0  0  0  0  0  0
   -4.7013  -49.3021   24.2754 H   0  0  0  0  0  0  0  0  0  0  0  0
   -1.4705  -47.8289   25.4425 H   0  0  0  0  0  0  0  0  0  0  0  0
   -3.1148  -48.4299   25.9693 H   0  0  0  0  0  0  0  0  0  0  0  0
   -0.9280  -50.1611   25.1587 H   0  0  0  0  0  0  0  0  0  0  0  0
   -1.3312  -49.6041   26.8528 H   0  0  0  0  0  0  0  0  0  0  0  0
   -3.5172  -52.7526   25.3215 H   0  0  0  0  0  0  0  0  0  0  0  0
   -1.9581  -52.4086   24.6115 H   0  0  0  0  0  0  0  0  0  0  0  0
   -3.3473  -51.4407   24.1799 H   0  0  0  0  0  0  0  0  0  0  0  0
   -2.3672  -50.9876   27.0995 H   0  0  0  0  0  0  0  0  0  0  0  0
   -4.1555  -51.6317   27.3533 H   0  0  0  0  0  0  0  0  0  0  0  0
   -3.1540  -50.3606   28.0125 H   0  0  0  0  0  0  0  0  0  0  0  0
   -2.5666  -52.0058   27.9765 H   0  0  0  0  0  0  0  0  0  0  0  0
  1 20  1  0  0  0  0
  1  2  1  0  0  0  0
  1 27  1  6  0  0  0
  2  3  1  0  0  0  0
  2 28  1  0  0  0  0
  2 29  1  0  0  0  0
  3  4  1  0  0  0  0
  3 30  1  0  0  0  0
  3 31  1  0  0  0  0
  4  5  1  0  0  0  0
  4 32  1  0  0  0  0
  4 33  1  0  0  0  0
  5  7  1  0  0  0  0
  5  6  1  0  0  0  0
  6  1  1  0  0  0  0
  6 34  1  0  0  0  0
  6 35  1  0  0  0  0
  7  8  2  0  0  0  0
  8  9  1  0  0  0  0
  9 17  1  0  0  0  0
  9 10  2  0  0  0  0
 10 11  1  0  0  0  0
 11 12  2  0  0  0  0
 12 13  1  0  0  0  0
 12 36  1  0  0  0  0
 13 14  2  0  0  0  0
 13 37  1  0  0  0  0
 14 15  1  0  0  0  0
 14 38  1  0  0  0  0
 15 16  2  0  0  0  0
 15 39  1  0  0  0  0
 16  7  1  0  0  0  0
 16 11  1  0  0  0  0
 17 18  1  0  0  0  0
 17 40  1  0  0  0  0
 18 19  1  0  0  0  0
 18 41  1  0  0  0  0
 18 42  1  0  0  0  0
 19 17  1  0  0  0  0
 19 43  1  0  0  0  0
 19 44  1  0  0  0  0
 20 21  1  0  0  0  0
 20 45  1  1  0  0  0
 21 46  1  0  0  0  0
 21 47  1  0  0  0  0
 21 48  1  0  0  0  0
 22 20  1  0  0  0  0
 22 49  1  0  0  0  0
 22 50  1  0  0  0  0
 23 22  1  0  0  0  0
 23 51  1  0  0  0  0
 23 52  1  0  0  0  0
 24 25  1  0  0  0  0
 24 53  1  0  0  0  0
 24 54  1  0  0  0  0
 24 55  1  0  0  0  0
 25 26  1  0  0  0  0
 25 23  1  0  0  0  0
 25 56  1  0  0  0  0
 26 57  1  0  0  0  0
 26 58  1  0  0  0  0
 26 59  1  0  0  0  0
M  CHG  2  20   1  25   1
M  END
>  <minimizedAffinity>
-9.09102

$$$$

 OpenBabel09092411003D

 55 57  0  0  0  0  0  0  0  0999 V2000
   -1.5451  -51.8363   24.3687 N   0  0  0  0  0  0  0  0  0  0  0  0
   -0.9433  -51.1148   23.1993 C   0  0  0  0  0  0  0  0  0  0  0  0
   -1.3251  -49.6916   22.9189 N   0  0  0  0  0  0  0  0  0  0  0  0
   -0.7233  -48.9702   21.7495 C   0  0  0  0  0  0  0  0  0  0  0  0
    0.2602  -49.6719   20.8607 N   0  0  0  0  0  0  0  0  0  0  0  0
    0.6421  -51.0952   21.1411 C   0  0  0  0  0  0  0  0  0  0  0  0
    1.6256  -51.7969   20.2522 C   0  0  0  0  0  0  0  0  0  0  0  0
    2.0074  -53.2201   20.5327 C   0  0  0  0  0  0  0  0  0  0  0  0
    1.4057  -53.9416   21.7020 C   0  0  0  0  0  0  0  0  0  0  0  0
    0.4221  -53.2398   22.5909 C   0  0  0  0  0  0  0  0  0  0  0  0
    0.0403  -51.8166   22.3104 C   0  0  0  0  0  0  0  0  0  0  0  0
   -1.1052  -47.5469   21.4691 C   0  0  0  0  0  0  0  0  0  0  0  0
   -1.6488  -46.5080   20.5337 C   0  0  0  0  0  0  0  0  0  0  0  0
   -1.2229  -46.1207   21.9188 C   0  0  0  0  0  0  0  0  0  0  0  0
   -3.0018  -52.1938   24.3606 C   0  0  0  0  0  0  0  0  0  0  0  0
   -3.8636  -51.8558   25.5409 C   0  0  0  0  0  0  0  0  0  0  0  0
   -4.4784  -49.3563   25.1880 C   0  0  0  0  0  0  0  0  0  0  0  0
   -3.9166  -50.4464   26.0517 N   0  3  0  0  0  0  0  0  0  0  0  0
   -3.4079  -50.1273   27.4262 C   0  0  0  0  0  0  0  0  0  0  0  0
   -0.6900  -52.2003   25.5462 C   0  0  0  0  0  0  0  0  0  0  0  0
    0.0285  -51.1286   26.3112 C   0  0  0  0  0  0  0  0  0  0  0  0
    1.4624  -51.3225   26.7066 N   0  3  0  0  0  0  0  0  0  0  0  0
    1.8037  -51.7549   28.1018 C   0  0  0  0  0  0  0  0  0  0  0  0
    2.5548  -51.0839   25.7069 C   0  0  0  0  0  0  0  0  0  0  0  0
    2.0396  -51.3005   19.4477 H   0  0  0  0  0  0  0  0  0  0  0  0
    2.6841  -53.7029   19.9211 H   0  0  0  0  0  0  0  0  0  0  0  0
    1.6684  -54.9208   21.8949 H   0  0  0  0  0  0  0  0  0  0  0  0
    0.0081  -53.7361   23.3954 H   0  0  0  0  0  0  0  0  0  0  0  0
   -0.8329  -48.5621   21.6692 H   0  0  0  0  0  0  0  0  0  0  0  0
   -2.6870  -46.5120   20.2747 H   0  0  0  0  0  0  0  0  0  0  0  0
   -1.4037  -46.1765   19.5463 H   0  0  0  0  0  0  0  0  0  0  0  0
   -1.9572  -45.8485   22.6479 H   0  0  0  0  0  0  0  0  0  0  0  0
   -0.5482  -45.3985   22.3288 H   0  0  0  0  0  0  0  0  0  0  0  0
   -3.4348  -51.7062   23.5123 H   0  0  0  0  0  0  0  0  0  0  0  0
   -2.9925  -53.2638   24.3613 H   0  0  0  0  0  0  0  0  0  0  0  0
   -4.8651  -52.1277   25.2801 H   0  0  0  0  0  0  0  0  0  0  0  0
   -3.4019  -52.3913   26.3440 H   0  0  0  0  0  0  0  0  0  0  0  0
   -4.4350  -48.4259   25.7147 H   0  0  0  0  0  0  0  0  0  0  0  0
   -5.4959  -49.5819   24.9457 H   0  0  0  0  0  0  0  0  0  0  0  0
   -3.9051  -49.2835   24.2875 H   0  0  0  0  0  0  0  0  0  0  0  0
   -3.3265  -49.6613   25.7764 H   0  0  0  0  0  0  0  0  0  0  0  0
   -3.8355  -50.8086   28.1318 H   0  0  0  0  0  0  0  0  0  0  0  0
   -3.6834  -49.1263   27.6850 H   0  0  0  0  0  0  0  0  0  0  0  0
   -2.3420  -50.2194   27.4423 H   0  0  0  0  0  0  0  0  0  0  0  0
    0.0569  -52.8776   25.1879 H   0  0  0  0  0  0  0  0  0  0  0  0
   -1.3964  -52.5775   26.2559 H   0  0  0  0  0  0  0  0  0  0  0  0
   -0.5226  -50.9718   27.2149 H   0  0  0  0  0  0  0  0  0  0  0  0
    0.0729  -50.3172   25.6151 H   0  0  0  0  0  0  0  0  0  0  0  0
    2.1775  -52.0444   26.6175 H   0  0  0  0  0  0  0  0  0  0  0  0
    1.2152  -51.1991   28.8015 H   0  0  0  0  0  0  0  0  0  0  0  0
    2.8421  -51.5751   28.2870 H   0  0  0  0  0  0  0  0  0  0  0  0
    1.5973  -52.7990   28.2122 H   0  0  0  0  0  0  0  0  0  0  0  0
    2.3965  -50.1426   25.2234 H   0  0  0  0  0  0  0  0  0  0  0  0
    2.5469  -51.8658   24.9765 H   0  0  0  0  0  0  0  0  0  0  0  0
    3.5004  -51.0731   26.2076 H   0  0  0  0  0  0  0  0  0  0  0  0
  1 20  1  0  0  0  0
  1  2  1  0  0  0  0
  2  3  2  0  0  0  0
  3  4  1  0  0  0  0
  4 12  1  0  0  0  0
  4  5  2  0  0  0  0
  5  6  1  0  0  0  0
  6  7  2  0  0  0  0
  7  8  1  0  0  0  0
  7 25  1  0  0  0  0
  8  9  2  0  0  0  0
  8 26  1  0  0  0  0
  9 10  1  0  0  0  0
  9 27  1  0  0  0  0
 10 11  2  0  0  0  0
 10 28  1  0  0  0  0
 11  2  1  0  0  0  0
 11  6  1  0  0  0  0
 12 13  1  0  0  0  0
 12 29  1  0  0  0  0
 13 14  1  0  0  0  0
 13 30  1  0  0  0  0
 13 31  1  0  0  0  0
 14 12  1  0  0  0  0
 14 32  1  0  0  0  0
 14 33  1  0  0  0  0
 15  1  1  0  0  0  0
 15 34  1  0  0  0  0
 15 35  1  0  0  0  0
 16 15  1  0  0  0  0
 16 36  1  0  0  0  0
 16 37  1  0  0  0  0
 17 18  1  0  0  0  0
 17 38  1  0  0  0  0
 17 39  1  0  0  0  0
 17 40  1  0  0  0  0
 18 19  1  0  0  0  0
 18 16  1  0  0  0  0
 18 41  1  0  0  0  0
 19 42  1  0  0  0  0
 19 43  1  0  0  0  0
 19 44  1  0  0  0  0
 20 21  1  0  0  0  0
 20 45  1  0  0  0  0
 20 46  1  0  0  0  0
 21 22  1  0  0  0  0
 21 47  1  0  0  0  0
 21 48  1  0  0  0  0
 22 23  1  0  0  0  0
 22 24  1  0  0  0  0
 22 49  1  0  0  0  0
 23 50  1  0  0  0  0
 23 51  1  0  0  0  0
 23 52  1  0  0  0  0
 24 53  1  0  0  0  0
 24 54  1  0  0  0  0
 24 55  1  0  0  0  0
M  CHG  2  18   1  22   1
M  END
>  <minimizedAffinity>
-7.03555

$$$$

 OpenBabel09092411003D

 52 55  0  0  0  0  0  0  0  0999 V2000
   -0.0703  -51.1212   21.9315 N   0  0  0  0  0  0  0  0  0  0  0  0
   -0.8410  -50.0796   21.1759 C   0  0  0  0  0  0  0  0  0  0  0  0
   -0.3869  -50.1131   19.7466 C   0  0  2  0  0  0  0  0  0  0  0  0
    0.6645  -51.1753   19.6190 C   0  0  1  0  0  0  0  0  0  0  0  0
    0.8601  -51.7984   20.9693 C   0  0  0  0  0  0  0  0  0  0  0  0
   -1.6846  -52.0883   25.4257 C   0  0  0  0  0  0  0  0  0  0  0  0
   -1.5488  -51.7782   23.9644 N   0  0  0  0  0  0  0  0  0  0  0  0
   -0.2061  -51.4313   23.3929 C   0  0  0  0  0  0  0  0  0  0  0  0
    1.0009  -51.3945   24.2827 N   0  0  0  0  0  0  0  0  0  0  0  0
    0.8652  -51.7045   25.7440 C   0  0  0  0  0  0  0  0  0  0  0  0
   -0.4776  -52.0514   26.3155 C   0  0  0  0  0  0  0  0  0  0  0  0
   -0.3044  -52.3087   27.7831 N   0  0  0  0  0  0  0  0  0  0  0  0
    1.1455  -52.1207   28.1186 C   0  0  0  0  0  0  0  0  0  0  0  0
    1.8683  -51.7474   26.8583 N   0  0  0  0  0  0  0  0  0  0  0  0
    3.3365  -51.4662   26.7343 C   0  0  0  0  0  0  0  0  0  0  0  0
   -4.2575  -51.7350   25.5005 C   0  0  0  0  0  0  0  0  0  0  0  0
   -3.0275  -52.4351   25.9972 O   0  0  0  0  0  0  0  0  0  0  0  0
   -0.8950  -49.2379   18.6394 N   0  0  0  0  0  0  0  0  0  0  0  0
   -2.1216  -49.6346   17.8727 C   0  0  0  0  0  0  0  0  0  0  0  0
   -2.6298  -48.7595   16.7655 C   0  0  0  0  0  0  0  0  0  0  0  0
   -2.8403  -50.9065   18.2132 O   0  0  0  0  0  0  0  0  0  0  0  0
    1.3924  -51.5488   18.3618 C   0  0  0  0  0  0  0  0  0  0  0  0
    2.4749  -52.5802   18.2431 C   0  0  0  0  0  0  0  0  0  0  0  0
    2.9171  -52.6254   16.8104 C   0  0  0  0  0  0  0  0  0  0  0  0
    2.1078  -51.6219   16.0437 C   0  0  0  0  0  0  0  0  0  0  0  0
    1.1654  -50.9565   17.0025 C   0  0  0  0  0  0  0  0  0  0  0  0
   -0.6519  -49.1132   21.5944 H   0  0  0  0  0  0  0  0  0  0  0  0
   -1.8909  -50.2767   21.2371 H   0  0  0  0  0  0  0  0  0  0  0  0
   -0.7495  -49.4893   18.9565 H   0  0  0  0  0  0  0  0  0  0  0  0
    1.1840  -51.4417   18.7223 H   0  0  0  0  0  0  0  0  0  0  0  0
    1.8727  -51.6642   21.2879 H   0  0  0  0  0  0  0  0  0  0  0  0
    0.6532  -52.8474   20.9281 H   0  0  0  0  0  0  0  0  0  0  0  0
    1.5710  -52.2291   29.0525 H   0  0  0  0  0  0  0  0  0  0  0  0
    3.8021  -51.5724   27.6918 H   0  0  0  0  0  0  0  0  0  0  0  0
    3.4795  -50.4678   26.3769 H   0  0  0  0  0  0  0  0  0  0  0  0
    3.7752  -52.1578   26.0457 H   0  0  0  0  0  0  0  0  0  0  0  0
   -5.1151  -52.1097   26.0191 H   0  0  0  0  0  0  0  0  0  0  0  0
   -4.3696  -51.9122   24.4512 H   0  0  0  0  0  0  0  0  0  0  0  0
   -4.1652  -50.6837   25.6768 H   0  0  0  0  0  0  0  0  0  0  0  0
   -0.4234  -48.4031   18.4160 H   0  0  0  0  0  0  0  0  0  0  0  0
   -1.9953  -47.9035   16.6676 H   0  0  0  0  0  0  0  0  0  0  0  0
   -3.6261  -48.4411   16.9913 H   0  0  0  0  0  0  0  0  0  0  0  0
   -2.6306  -49.3097   15.8478 H   0  0  0  0  0  0  0  0  0  0  0  0
    0.8737  -51.2820   19.2588 H   0  0  0  0  0  0  0  0  0  0  0  0
    2.0981  -53.5375   18.5372 H   0  0  0  0  0  0  0  0  0  0  0  0
    3.2985  -52.3295   18.8785 H   0  0  0  0  0  0  0  0  0  0  0  0
    2.7544  -53.6046   16.4109 H   0  0  0  0  0  0  0  0  0  0  0  0
    3.9598  -52.3971   16.7358 H   0  0  0  0  0  0  0  0  0  0  0  0
    1.5533  -52.1152   15.2730 H   0  0  0  0  0  0  0  0  0  0  0  0
    2.7494  -50.8962   15.5891 H   0  0  0  0  0  0  0  0  0  0  0  0
    0.1546  -51.1277   16.6960 H   0  0  0  0  0  0  0  0  0  0  0  0
    1.3399  -49.9010   17.0231 H   0  0  0  0  0  0  0  0  0  0  0  0
  1  2  1  0  0  0  0
  2  3  1  0  0  0  0
  2 27  1  0  0  0  0
  2 28  1  0  0  0  0
  3 18  1  0  0  0  0
  3  4  1  0  0  0  0
  3 29  1  6  0  0  0
  4 22  1  0  0  0  0
  4  5  1  0  0  0  0
  4 30  1  1  0  0  0
  5  1  1  0  0  0  0
  5 31  1  0  0  0  0
  5 32  1  0  0  0  0
  6  7  2  0  0  0  0
  7  8  1  0  0  0  0
  8  1  1  0  0  0  0
  8  9  2  0  0  0  0
  9 10  1  0  0  0  0
 10 11  2  0  0  0  0
 11 12  1  0  0  0  0
 11  6  1  0  0  0  0
 12 13  2  0  0  0  0
 13 14  1  0  0  0  0
 13 33  1  0  0  0  0
 14 15  1  0  0  0  0
 14 10  1  0  0  0  0
 15 34  1  0  0  0  0
 15 35  1  0  0  0  0
 15 36  1  0  0  0  0
 16 17  1  0  0  0  0
 16 37  1  0  0  0  0
 16 38  1  0  0  0  0
 16 39  1  0  0  0  0
 17  6  1  0  0  0  0
 18 19  1  0  0  0  0
 18 40  1  0  0  0  0
 19 20  1  0  0  0  0
 19 21  2  0  0  0  0
 20 41  1  0  0  0  0
 20 42  1  0  0  0  0
 20 43  1  0  0  0  0
 22 23  1  0  0  0  0
 22 44  1  0  0  0  0
 23 24  1  0  0  0  0
 23 45  1  0  0  0  0
 23 46  1  0  0  0  0
 24 25  1  0  0  0  0
 24 47  1  0  0  0  0
 24 48  1  0  0  0  0
 25 26  1  0  0  0  0
 25 49  1  0  0  0  0
 25 50  1  0  0  0  0
 26 22  1  0  0  0  0
 26 51  1  0  0  0  0
 26 52  1  0  0  0  0
M  END
>  <minimizedAffinity>
-7.58450

$$$$

 OpenBabel09092411003D

 50 53  0  0  0  0  0  0  0  0999 V2000
    1.5389  -52.1389   18.6436 C   0  0  1  0  0  0  0  0  0  0  0  0
    1.7283  -53.0488   19.8211 C   0  0  2  0  0  0  0  0  0  0  0  0
    1.9176  -53.9586   20.9985 C   0  0  0  0  0  0  0  0  0  0  0  0
    1.3254  -53.5971   22.3285 C   0  0  0  0  0  0  0  0  0  0  0  0
    0.5439  -52.3260   22.4809 N   0  0  0  0  0  0  0  0  0  0  0  0
    0.3546  -51.4161   21.3035 C   0  0  0  0  0  0  0  0  0  0  0  0
    0.9468  -51.7775   19.9736 C   0  0  2  0  0  0  0  0  0  0  0  0
   -0.0483  -51.9645   23.8109 C   0  0  0  0  0  0  0  0  0  0  0  0
    0.8477  -51.7062   24.9856 N   0  0  0  0  0  0  0  0  0  0  0  0
    0.2555  -51.3447   26.3156 C   0  0  0  0  0  0  0  0  0  0  0  0
   -1.2329  -51.2416   26.4706 C   0  0  0  0  0  0  0  0  0  0  0  0
   -2.0984  -50.9066   27.6490 N   0  0  0  0  0  0  0  0  0  0  0  0
   -3.5295  -50.9579   27.2024 C   0  0  0  0  0  0  0  0  0  0  0  0
   -3.5484  -51.3245   25.7480 N   0  0  0  0  0  0  0  0  0  0  0  0
   -4.7719  -51.4872   24.8956 C   0  0  0  0  0  0  0  0  0  0  0  0
   -2.1290  -51.4998   25.2957 C   0  0  0  0  0  0  0  0  0  0  0  0
   -1.5367  -51.8613   23.9659 N   0  0  0  0  0  0  0  0  0  0  0  0
    1.1517  -51.0865   27.4904 O   0  0  0  0  0  0  0  0  0  0  0  0
    1.4943  -52.2027   28.4320 C   0  0  0  0  0  0  0  0  0  0  0  0
    3.0994  -52.1229   16.5665 N   0  0  0  0  0  0  0  0  0  0  0  0
    1.7715  -51.8223   17.1960 C   0  0  0  0  0  0  0  0  0  0  0  0
    0.6761  -51.2051   16.3778 O   0  0  0  0  0  0  0  0  0  0  0  0
    3.3319  -51.8062   15.1188 C   0  0  0  0  0  0  0  0  0  0  0  0
    5.2465  -50.7346   13.7273 C   0  0  0  0  0  0  0  0  0  0  0  0
    4.7183  -51.8723   14.5499 C   0  0  0  0  0  0  0  0  0  0  0  0
    5.5765  -53.0760   14.8037 C   0  0  0  0  0  0  0  0  0  0  0  0
    1.7046  -51.9130   17.6109 H   0  0  0  0  0  0  0  0  0  0  0  0
    2.2858  -53.9556   19.7123 H   0  0  0  0  0  0  0  0  0  0  0  0
    2.9728  -54.0567   21.1466 H   0  0  0  0  0  0  0  0  0  0  0  0
    1.3763  -54.8383   20.7191 H   0  0  0  0  0  0  0  0  0  0  0  0
    2.1367  -53.5462   23.0243 H   0  0  0  0  0  0  0  0  0  0  0  0
    0.5899  -54.3583   22.4853 H   0  0  0  0  0  0  0  0  0  0  0  0
    0.7661  -50.4671   21.5772 H   0  0  0  0  0  0  0  0  0  0  0  0
   -0.6993  -51.4620   21.1241 H   0  0  0  0  0  0  0  0  0  0  0  0
    0.3894  -50.8706   20.0824 H   0  0  0  0  0  0  0  0  0  0  0  0
   -4.3560  -50.7734   27.7922 H   0  0  0  0  0  0  0  0  0  0  0  0
   -5.6449  -51.3007   25.4855 H   0  0  0  0  0  0  0  0  0  0  0  0
   -4.8082  -52.4848   24.5104 H   0  0  0  0  0  0  0  0  0  0  0  0
   -4.7354  -50.7922   24.0829 H   0  0  0  0  0  0  0  0  0  0  0  0
    2.1387  -51.8341   29.2026 H   0  0  0  0  0  0  0  0  0  0  0  0
    1.9913  -52.9830   27.8944 H   0  0  0  0  0  0  0  0  0  0  0  0
    0.5973  -52.5872   28.8707 H   0  0  0  0  0  0  0  0  0  0  0  0
    3.8183  -52.5280   17.1034 H   0  0  0  0  0  0  0  0  0  0  0  0
    2.7330  -52.4891   14.5532 H   0  0  0  0  0  0  0  0  0  0  0  0
    3.0880  -50.7665   15.0522 H   0  0  0  0  0  0  0  0  0  0  0  0
    6.2003  -50.7801   13.3359 H   0  0  0  0  0  0  0  0  0  0  0  0
    4.6561  -49.9064   13.5527 H   0  0  0  0  0  0  0  0  0  0  0  0
    6.5239  -52.9461   14.3237 H   0  0  0  0  0  0  0  0  0  0  0  0
    5.0943  -53.9469   14.4114 H   0  0  0  0  0  0  0  0  0  0  0  0
    5.7234  -53.1936   15.8570 H   0  0  0  0  0  0  0  0  0  0  0  0
  1 21  1  0  0  0  0
  1  2  1  0  0  0  0
  1 27  1  6  0  0  0
  2  3  1  0  0  0  0
  2 28  1  1  0  0  0
  3  4  1  0  0  0  0
  3 29  1  0  0  0  0
  3 30  1  0  0  0  0
  4  5  1  0  0  0  0
  4 31  1  0  0  0  0
  4 32  1  0  0  0  0
  5  8  1  0  0  0  0
  5  6  1  0  0  0  0
  6 33  1  0  0  0  0
  6 34  1  0  0  0  0
  7  6  1  0  0  0  0
  7  1  1  0  0  0  0
  7  2  1  0  0  0  0
  7 35  1  1  0  0  0
  8  9  2  0  0  0  0
  9 10  1  0  0  0  0
 10 18  1  0  0  0  0
 10 11  2  0  0  0  0
 11 12  1  0  0  0  0
 12 13  2  0  0  0  0
 13 14  1  0  0  0  0
 13 36  1  0  0  0  0
 14 15  1  0  0  0  0
 14 16  1  0  0  0  0
 15 37  1  0  0  0  0
 15 38  1  0  0  0  0
 15 39  1  0  0  0  0
 16 17  2  0  0  0  0
 16 11  1  0  0  0  0
 17  8  1  0  0  0  0
 18 19  1  0  0  0  0
 19 40  1  0  0  0  0
 19 41  1  0  0  0  0
 19 42  1  0  0  0  0
 20 21  1  0  0  0  0
 20 43  1  0  0  0  0
 21 22  2  0  0  0  0
 23 20  1  0  0  0  0
 23 44  1  0  0  0  0
 23 45  1  0  0  0  0
 24 25  2  0  0  0  0
 24 46  1  0  0  0  0
 24 47  1  0  0  0  0
 25 26  1  0  0  0  0
 25 23  1  0  0  0  0
 26 48  1  0  0  0  0
 26 49  1  0  0  0  0
 26 50  1  0  0  0  0
M  END
>  <minimizedAffinity>
-7.60924

$$$$

 OpenBabel09092411003D

 58 61  0  0  0  0  0  0  0  0999 V2000
   -1.3679  -50.3004   17.4556 N   0  0  0  0  0  0  0  0  0  0  0  0
   -1.0807  -51.0288   18.7351 C   0  0  0  0  0  0  0  0  0  0  0  0
   -2.2028  -51.3796   19.6666 O   0  0  0  0  0  0  0  0  0  0  0  0
    0.3286  -51.4062   19.0831 N   0  0  0  0  0  0  0  0  0  0  0  0
    0.6159  -52.1346   20.3625 C   0  0  1  0  0  0  0  0  0  0  0  0
    1.1475  -53.5322   20.4812 C   0  0  0  0  0  0  0  0  0  0  0  0
    1.2821  -53.8545   21.9400 C   0  0  0  0  0  0  0  0  0  0  0  0
    0.8338  -52.6561   22.7229 N   0  0  0  0  0  0  0  0  0  0  0  0
    0.4221  -51.5931   21.7479 C   0  0  0  0  0  0  0  0  0  0  0  0
   -0.0930  -50.2283   22.0970 O   0  0  0  0  0  0  0  0  0  0  0  0
    0.8027  -52.5409   24.2181 C   0  0  0  0  0  0  0  0  0  0  0  0
    0.1667  -53.6221   25.0406 C   0  0  0  0  0  0  0  0  0  0  0  0
    0.1356  -53.5069   26.5358 C   0  0  0  0  0  0  0  0  0  0  0  0
    0.7406  -52.3105   27.2086 O   0  0  0  0  0  0  0  0  0  0  0  0
    1.3766  -51.2293   26.3861 C   0  0  0  0  0  0  0  0  0  0  0  0
    1.4077  -51.3445   24.8909 C   0  0  0  0  0  0  0  0  0  0  0  0
    0.2007  -48.5237   16.3913 C   0  0  0  0  0  0  0  0  0  0  0  0
   -0.2458  -49.9496   16.5241 C   0  0  0  0  0  0  0  0  0  0  0  0
   -2.7774  -49.9229   17.1077 C   0  0  0  0  0  0  0  0  0  0  0  0
   -3.1790  -49.7664   15.6709 C   0  0  0  0  0  0  0  0  0  0  0  0
   -3.8658  -48.5748   15.0722 C   0  0  0  0  0  0  0  0  0  0  0  0
   -4.0755  -48.8459   13.6119 O   0  0  0  0  0  0  0  0  0  0  0  0
   -3.5184  -50.2050   13.3081 C   0  0  0  0  0  0  0  0  0  0  0  0
   -2.9643  -50.7739   14.5806 N   0  0  0  0  0  0  0  0  0  0  0  0
   -3.5158  -50.8773   11.9671 C   0  0  0  0  0  0  0  0  0  0  0  0
   -4.2188  -52.1898   11.7848 C   0  0  0  0  0  0  0  0  0  0  0  0
   -4.2161  -52.8620   10.4439 C   0  0  0  0  0  0  0  0  0  0  0  0
   -3.5105  -52.2218    9.2853 C   0  0  0  0  0  0  0  0  0  0  0  0
   -2.8075  -50.9094    9.4677 C   0  0  0  0  0  0  0  0  0  0  0  0
   -2.8101  -50.2372   10.8086 C   0  0  0  0  0  0  0  0  0  0  0  0
    1.0651  -51.1758   18.4718 H   0  0  0  0  0  0  0  0  0  0  0  0
    0.4107  -51.6156   19.4496 H   0  0  0  0  0  0  0  0  0  0  0  0
    2.1033  -53.5988   20.0049 H   0  0  0  0  0  0  0  0  0  0  0  0
    0.4830  -54.2242   20.0074 H   0  0  0  0  0  0  0  0  0  0  0  0
    2.3031  -54.0773   22.1699 H   0  0  0  0  0  0  0  0  0  0  0  0
    0.6842  -54.7061   22.1892 H   0  0  0  0  0  0  0  0  0  0  0  0
   -0.1380  -52.3382   23.7502 H   0  0  0  0  0  0  0  0  0  0  0  0
    0.6849  -54.5298   24.8115 H   0  0  0  0  0  0  0  0  0  0  0  0
   -0.8663  -53.5631   24.7679 H   0  0  0  0  0  0  0  0  0  0  0  0
    0.6409  -54.3671   26.9225 H   0  0  0  0  0  0  0  0  0  0  0  0
   -0.9076  -53.4101   26.7534 H   0  0  0  0  0  0  0  0  0  0  0  0
    2.3931  -51.1515   26.7111 H   0  0  0  0  0  0  0  0  0  0  0  0
    0.7403  -50.3857   26.5546 H   0  0  0  0  0  0  0  0  0  0  0  0
    2.4370  -51.3142   24.6001 H   0  0  0  0  0  0  0  0  0  0  0  0
    0.7817  -50.5386   24.5691 H   0  0  0  0  0  0  0  0  0  0  0  0
    1.0049  -48.4658   15.6879 H   0  0  0  0  0  0  0  0  0  0  0  0
    0.5324  -48.1638   17.3428 H   0  0  0  0  0  0  0  0  0  0  0  0
   -0.6168  -47.9244   16.0485 H   0  0  0  0  0  0  0  0  0  0  0  0
    0.6071  -50.5120   16.8423 H   0  0  0  0  0  0  0  0  0  0  0  0
   -0.6492  -50.1720   15.5583 H   0  0  0  0  0  0  0  0  0  0  0  0
   -2.9737  -48.9866   17.5870 H   0  0  0  0  0  0  0  0  0  0  0  0
   -3.3458  -50.7698   17.4311 H   0  0  0  0  0  0  0  0  0  0  0  0
   -4.1450  -47.7188   15.5765 H   0  0  0  0  0  0  0  0  0  0  0  0
   -4.7043  -52.6303   12.5819 H   0  0  0  0  0  0  0  0  0  0  0  0
   -4.6997  -53.7650   10.3184 H   0  0  0  0  0  0  0  0  0  0  0  0
   -3.5087  -52.6843    8.3627 H   0  0  0  0  0  0  0  0  0  0  0  0
   -2.3220  -50.4689    8.6706 H   0  0  0  0  0  0  0  0  0  0  0  0
   -2.3263  -49.3343   10.9341 H   0  0  0  0  0  0  0  0  0  0  0  0
  1 19  1  0  0  0  0
  1  2  1  0  0  0  0
  2  3  2  0  0  0  0
  2  4  1  0  0  0  0
  4 31  1  0  0  0  0
  5  4  1  0  0  0  0
  5  6  1  0  0  0  0
  5 32  1  1  0  0  0
  6  7  1  0  0  0  0
  6 33  1  0  0  0  0
  6 34  1  0  0  0  0
  7  8  1  0  0  0  0
  7 35  1  0  0  0  0
  7 36  1  0  0  0  0
  8 11  1  0  0  0  0
  8  9  1  0  0  0  0
  9 10  2  0  0  0  0
  9  5  1  0  0  0  0
 11 12  1  0  0  0  0
 11 37  1  0  0  0  0
 12 13  1  0  0  0  0
 12 38  1  0  0  0  0
 12 39  1  0  0  0  0
 13 14  1  0  0  0  0
 13 40  1  0  0  0  0
 13 41  1  0  0  0  0
 14 15  1  0  0  0  0
 15 16  1  0  0  0  0
 15 42  1  0  0  0  0
 15 43  1  0  0  0  0
 16 11  1  0  0  0  0
 16 44  1  0  0  0  0
 16 45  1  0  0  0  0
 17 18  1  0  0  0  0
 17 46  1  0  0  0  0
 17 47  1  0  0  0  0
 17 48  1  0  0  0  0
 18  1  1  0  0  0  0
 18 49  1  0  0  0  0
 18 50  1  0  0  0  0
 19 20  1  0  0  0  0
 19 51  1  0  0  0  0
 19 52  1  0  0  0  0
 20 21  2  0  0  0  0
 21 22  1  0  0  0  0
 21 53  1  0  0  0  0
 22 23  1  0  0  0  0
 23 25  1  0  0  0  0
 23 24  2  0  0  0  0
 24 20  1  0  0  0  0
 25 26  2  0  0  0  0
 26 27  1  0  0  0  0
 26 54  1  0  0  0  0
 27 28  2  0  0  0  0
 27 55  1  0  0  0  0
 28 29  1  0  0  0  0
 28 56  1  0  0  0  0
 29 30  2  0  0  0  0
 29 57  1  0  0  0  0
 30 25  1  0  0  0  0
 30 58  1  0  0  0  0
M  END
>  <minimizedAffinity>
-7.64143

$$$$

 OpenBabel09092411003D

 42 45  0  0  0  0  0  0  0  0999 V2000
    0.3561  -51.0430   20.3382 N   0  0  0  0  0  0  0  0  0  0  0  0
    0.8477  -52.1414   19.4427 C   0  0  0  0  0  0  0  0  0  0  0  0
    0.8773  -53.5568   19.9387 O   0  0  0  0  0  0  0  0  0  0  0  0
   -2.7386  -52.1149   24.4800 C   0  0  0  0  0  0  0  0  0  0  0  0
   -1.5284  -51.8526   23.6334 N   0  0  0  0  0  0  0  0  0  0  0  0
   -1.5286  -51.5543   22.1633 N   0  0  0  0  0  0  0  0  0  0  0  0
   -0.1060  -51.3600   21.7296 C   0  0  0  0  0  0  0  0  0  0  0  0
    0.7736  -51.5382   22.9315 C   0  0  0  0  0  0  0  0  0  0  0  0
   -0.1056  -51.8427   24.1081 C   0  0  0  0  0  0  0  0  0  0  0  0
    0.3569  -52.0933   25.5128 N   0  0  0  0  0  0  0  0  0  0  0  0
    1.0199  -51.0943   26.4142 C   0  0  0  0  0  0  0  0  0  0  0  0
    1.3103  -51.7705   27.7213 C   0  0  0  0  0  0  0  0  0  0  0  0
    0.8268  -53.1874   27.6277 O   0  0  0  0  0  0  0  0  0  0  0  0
    0.2376  -53.3869   26.2629 C   0  0  0  0  0  0  0  0  0  0  0  0
   -0.3651  -54.6569   25.7397 O   0  0  0  0  0  0  0  0  0  0  0  0
    1.3098  -51.8245   18.0513 C   0  0  0  0  0  0  0  0  0  0  0  0
    0.5610  -51.0112   17.0374 C   0  0  0  0  0  0  0  0  0  0  0  0
    1.3902  -50.9493   15.7890 N   0  0  0  0  0  0  0  0  0  0  0  0
    2.6514  -51.7243   16.0313 N   0  0  0  0  0  0  0  0  0  0  0  0
    2.6017  -52.2652   17.4295 C   0  0  0  0  0  0  0  0  0  0  0  0
    3.7667  -51.9234   15.0480 C   0  0  0  0  0  0  0  0  0  0  0  0
    3.6744  -51.3213   13.6773 C   0  0  0  0  0  0  0  0  0  0  0  0
    4.7896  -51.5204   12.6941 C   0  0  0  0  0  0  0  0  0  0  0  0
    5.9970  -52.3217   13.0816 C   0  0  0  0  0  0  0  0  0  0  0  0
    6.0892  -52.9238   14.4524 C   0  0  0  0  0  0  0  0  0  0  0  0
    4.9740  -52.7247   15.4355 C   0  0  0  0  0  0  0  0  0  0  0  0
    0.3367  -50.1141   20.0127 H   0  0  0  0  0  0  0  0  0  0  0  0
   -3.6178  -52.0573   23.8729 H   0  0  0  0  0  0  0  0  0  0  0  0
   -2.7944  -51.3833   25.2589 H   0  0  0  0  0  0  0  0  0  0  0  0
   -2.6668  -53.0911   24.9121 H   0  0  0  0  0  0  0  0  0  0  0  0
    1.8028  -51.4643   22.9463 H   0  0  0  0  0  0  0  0  0  0  0  0
    0.3685  -50.2605   26.5735 H   0  0  0  0  0  0  0  0  0  0  0  0
    1.9260  -50.7375   25.9709 H   0  0  0  0  0  0  0  0  0  0  0  0
    0.7995  -51.2641   28.5135 H   0  0  0  0  0  0  0  0  0  0  0  0
    2.3604  -51.7488   27.9258 H   0  0  0  0  0  0  0  0  0  0  0  0
   -0.3625  -50.5715   17.1747 H   0  0  0  0  0  0  0  0  0  0  0  0
    3.3287  -52.8397   17.8839 H   0  0  0  0  0  0  0  0  0  0  0  0
    2.8437  -50.7701   13.4107 H   0  0  0  0  0  0  0  0  0  0  0  0
    4.7262  -51.1061   11.7510 H   0  0  0  0  0  0  0  0  0  0  0  0
    6.7642  -52.4587   12.4051 H   0  0  0  0  0  0  0  0  0  0  0  0
    6.9199  -53.4750   14.7191 H   0  0  0  0  0  0  0  0  0  0  0  0
    5.0374  -53.1390   16.3785 H   0  0  0  0  0  0  0  0  0  0  0  0
  1  2  1  0  0  0  0
  1 27  1  0  0  0  0
  2  3  2  0  0  0  0
  2 16  1  0  0  0  0
  4  5  1  0  0  0  0
  4 28  1  0  0  0  0
  4 29  1  0  0  0  0
  4 30  1  0  0  0  0
  5  6  1  0  0  0  0
  6  7  2  0  0  0  0
  7  1  1  0  0  0  0
  7  8  1  0  0  0  0
  8  9  2  0  0  0  0
  8 31  1  0  0  0  0
  9 10  1  0  0  0  0
  9  5  1  0  0  0  0
 10 11  1  0  0  0  0
 11 12  1  0  0  0  0
 11 32  1  0  0  0  0
 11 33  1  0  0  0  0
 12 13  1  0  0  0  0
 12 34  1  0  0  0  0
 12 35  1  0  0  0  0
 13 14  1  0  0  0  0
 14 15  2  0  0  0  0
 14 10  1  0  0  0  0
 16 17  1  0  0  0  0
 17 18  2  0  0  0  0
 17 36  1  0  0  0  0
 18 19  1  0  0  0  0
 19 21  1  0  0  0  0
 19 20  1  0  0  0  0
 20 16  2  0  0  0  0
 20 37  1  0  0  0  0
 21 22  2  0  0  0  0
 22 23  1  0  0  0  0
 22 38  1  0  0  0  0
 23 24  2  0  0  0  0
 23 39  1  0  0  0  0
 24 25  1  0  0  0  0
 24 40  1  0  0  0  0
 25 26  2  0  0  0  0
 25 41  1  0  0  0  0
 26 21  1  0  0  0  0
 26 42  1  0  0  0  0
M  END
>  <minimizedAffinity>
-7.66926

$$$$

 OpenBabel09092411003D

 32 34  0  0  0  0  0  0  0  0999 V2000
    1.5049  -53.7896   21.3182 N   0  0  0  0  0  0  0  0  0  0  0  0
    1.1380  -53.2404   22.6650 C   0  0  0  0  0  0  0  0  0  0  0  0
    1.1417  -51.7585   22.8971 C   0  0  0  0  0  0  0  0  0  0  0  0
    0.7748  -51.2092   24.2438 C   0  0  0  0  0  0  0  0  0  0  0  0
    0.4043  -52.1420   25.3586 C   0  0  0  0  0  0  0  0  0  0  0  0
    0.4006  -53.6239   25.1266 C   0  0  0  0  0  0  0  0  0  0  0  0
    0.7675  -54.1731   23.7798 C   0  0  0  0  0  0  0  0  0  0  0  0
    0.0300  -54.5567   26.2413 O   0  0  0  0  0  0  0  0  0  0  0  0
   -0.3368  -54.0075   27.5880 C   0  0  0  0  0  0  0  0  0  0  0  0
   -0.3331  -52.5255   27.8201 C   0  0  0  0  0  0  0  0  0  0  0  0
    0.0374  -51.5928   26.7053 O   0  0  0  0  0  0  0  0  0  0  0  0
    2.0444  -52.1510   17.7442 C   0  0  0  0  0  0  0  0  0  0  0  0
    0.7944  -51.3316   17.6164 C   0  0  0  0  0  0  0  0  0  0  0  0
   -0.2188  -51.3317   18.7226 C   0  0  0  0  0  0  0  0  0  0  0  0
    0.0181  -52.1510   19.9565 C   0  0  0  0  0  0  0  0  0  0  0  0
    1.2680  -52.9703   20.0843 C   0  0  0  0  0  0  0  0  0  0  0  0
    2.2812  -52.9703   18.9782 C   0  0  0  0  0  0  0  0  0  0  0  0
    4.0706  -52.1510   15.5319 C   0  0  0  0  0  0  0  0  0  0  0  0
    3.0575  -52.1510   16.6381 C   0  0  0  0  0  0  0  0  0  0  0  0
    1.9012  -54.6878   21.2441 H   0  0  0  0  0  0  0  0  0  0  0  0
    1.3967  -51.1168   22.1302 H   0  0  0  0  0  0  0  0  0  0  0  0
    0.7773  -50.1896   24.4034 H   0  0  0  0  0  0  0  0  0  0  0  0
    0.7650  -55.1927   23.6202 H   0  0  0  0  0  0  0  0  0  0  0  0
    0.3483  -54.4321   28.2917 H   0  0  0  0  0  0  0  0  0  0  0  0
   -1.3695  -54.2694   27.6874 H   0  0  0  0  0  0  0  0  0  0  0  0
    0.3536  -52.3397   28.6194 H   0  0  0  0  0  0  0  0  0  0  0  0
   -1.3645  -52.3014   27.9958 H   0  0  0  0  0  0  0  0  0  0  0  0
    0.6315  -50.7678   16.7675 H   0  0  0  0  0  0  0  0  0  0  0  0
   -1.0788  -50.7681   18.6347 H   0  0  0  0  0  0  0  0  0  0  0  0
   -0.6789  -52.1510   20.7176 H   0  0  0  0  0  0  0  0  0  0  0  0
    3.1412  -53.5340   19.0662 H   0  0  0  0  0  0  0  0  0  0  0  0
    4.7419  -52.1510   14.7989 H   0  0  0  0  0  0  0  0  0  0  0  0
  1  2  1  0  0  0  0
  1 20  1  0  0  0  0
  2  3  2  0  0  0  0
  3  4  1  0  0  0  0
  3 21  1  0  0  0  0
  4  5  2  0  0  0  0
  4 22  1  0  0  0  0
  5  6  1  0  0  0  0
  6  7  2  0  0  0  0
  6  8  1  0  0  0  0
  7  2  1  0  0  0  0
  7 23  1  0  0  0  0
  8  9  1  0  0  0  0
  9 10  1  0  0  0  0
  9 24  1  0  0  0  0
  9 25  1  0  0  0  0
 10 11  1  0  0  0  0
 10 26  1  0  0  0  0
 10 27  1  0  0  0  0
 11  5  1  0  0  0  0
 12 13  2  0  0  0  0
 13 14  1  0  0  0  0
 13 28  1  0  0  0  0
 14 15  2  0  0  0  0
 14 29  1  0  0  0  0
 15 16  1  0  0  0  0
 15 30  1  0  0  0  0
 16  1  1  0  0  0  0
 16 17  2  0  0  0  0
 17 12  1  0  0  0  0
 17 31  1  0  0  0  0
 18 19  3  0  0  0  0
 18 32  1  0  0  0  0
 19 12  1  0  0  0  0
M  END
>  <minimizedAffinity>
-6.95173

$$$$

 OpenBabel09092411003D

 32 34  0  0  0  0  0  0  0  0999 V2000
    0.4151  -50.5923   23.3941 N   0  0  0  0  0  0  0  0  0  0  0  0
    0.7293  -51.0045   24.8017 C   0  0  0  0  0  0  0  0  0  0  0  0
    2.1521  -51.0301   25.2758 C   0  0  0  0  0  0  0  0  0  0  0  0
    2.4663  -51.4423   26.6834 C   0  0  0  0  0  0  0  0  0  0  0  0
    1.3577  -51.8290   27.6169 C   0  0  0  0  0  0  0  0  0  0  0  0
   -0.0652  -51.8035   27.1427 C   0  0  0  0  0  0  0  0  0  0  0  0
   -0.3794  -51.3912   25.7351 C   0  0  0  0  0  0  0  0  0  0  0  0
   -1.8023  -51.3657   25.2610 O   0  0  0  0  0  0  0  0  0  0  0  0
   -2.9109  -51.7524   26.1944 C   0  0  0  0  0  0  0  0  0  0  0  0
   -2.5967  -52.1646   27.6020 C   0  0  0  0  0  0  0  0  0  0  0  0
   -1.1739  -52.1902   28.0762 O   0  0  0  0  0  0  0  0  0  0  0  0
    1.0491  -51.9409   19.7158 C   0  0  0  0  0  0  0  0  0  0  0  0
    1.2701  -53.4002   19.9831 C   0  0  0  0  0  0  0  0  0  0  0  0
    1.2061  -53.9236   21.3874 C   0  0  0  0  0  0  0  0  0  0  0  0
    0.9211  -52.9876   22.5244 C   0  0  0  0  0  0  0  0  0  0  0  0
    0.7001  -51.5282   22.2571 C   0  0  0  0  0  0  0  0  0  0  0  0
    0.7641  -51.0048   20.8528 C   0  0  0  0  0  0  0  0  0  0  0  0
    1.1770  -50.8941   16.9073 C   0  0  0  0  0  0  0  0  0  0  0  0
    1.1131  -51.4175   18.3116 C   0  0  0  0  0  0  0  0  0  0  0  0
    0.0218  -49.7074   23.2165 H   0  0  0  0  0  0  0  0  0  0  0  0
    2.9149  -50.7641   24.6336 H   0  0  0  0  0  0  0  0  0  0  0  0
    3.4452  -51.4598   27.0096 H   0  0  0  0  0  0  0  0  0  0  0  0
    1.5739  -52.1126   28.5853 H   0  0  0  0  0  0  0  0  0  0  0  0
   -3.4253  -52.5731   25.7397 H   0  0  0  0  0  0  0  0  0  0  0  0
   -3.4553  -50.8400   26.3210 H   0  0  0  0  0  0  0  0  0  0  0  0
   -2.9818  -53.1550   27.7271 H   0  0  0  0  0  0  0  0  0  0  0  0
   -3.0380  -51.3873   28.1902 H   0  0  0  0  0  0  0  0  0  0  0  0
    1.4662  -54.0442   19.2009 H   0  0  0  0  0  0  0  0  0  0  0  0
    1.3581  -54.9276   21.5713 H   0  0  0  0  0  0  0  0  0  0  0  0
    0.8771  -53.3477   23.4905 H   0  0  0  0  0  0  0  0  0  0  0  0
    0.6121  -50.0008   20.6689 H   0  0  0  0  0  0  0  0  0  0  0  0
    1.2193  -50.5473   15.9767 H   0  0  0  0  0  0  0  0  0  0  0  0
  1  2  1  0  0  0  0
  1 20  1  0  0  0  0
  2  3  2  0  0  0  0
  3  4  1  0  0  0  0
  3 21  1  0  0  0  0
  4  5  2  0  0  0  0
  4 22  1  0  0  0  0
  5  6  1  0  0  0  0
  5 23  1  0  0  0  0
  6  7  2  0  0  0  0
  7  8  1  0  0  0  0
  7  2  1  0  0  0  0
  8  9  1  0  0  0  0
  9 10  1  0  0  0  0
  9 24  1  0  0  0  0
  9 25  1  0  0  0  0
 10 11  1  0  0  0  0
 10 26  1  0  0  0  0
 10 27  1  0  0  0  0
 11  6  1  0  0  0  0
 12 13  2  0  0  0  0
 13 14  1  0  0  0  0
 13 28  1  0  0  0  0
 14 15  2  0  0  0  0
 14 29  1  0  0  0  0
 15 16  1  0  0  0  0
 15 30  1  0  0  0  0
 16  1  1  0  0  0  0
 16 17  2  0  0  0  0
 17 12  1  0  0  0  0
 17 31  1  0  0  0  0
 18 19  3  0  0  0  0
 18 32  1  0  0  0  0
 19 12  1  0  0  0  0
M  END
>  <minimizedAffinity>
-7.16033

$$$$

 OpenBabel09092411003D

 34 37  0  0  0  0  0  0  0  0999 V2000
   -0.7426  -49.9264   23.6202 N   0  0  0  0  0  0  0  0  0  0  0  0
    3.0471  -51.3968   27.1876 F   0  0  0  0  0  0  0  0  0  0  0  0
    1.5738  -51.6532   27.0702 C   0  0  0  0  0  0  0  0  0  0  0  0
    0.8727  -52.4851   28.1028 C   0  0  0  0  0  0  0  0  0  0  0  0
   -0.6006  -52.7415   27.9854 C   0  0  0  0  0  0  0  0  0  0  0  0
   -1.3727  -52.1659   26.8354 C   0  0  0  0  0  0  0  0  0  0  0  0
   -2.8460  -52.4223   26.7180 N   0  0  0  0  0  0  0  0  0  0  0  0
   -3.6181  -51.8467   25.5681 C   0  0  0  0  0  0  0  0  0  0  0  0
   -2.9170  -51.0147   24.5354 N   0  0  0  0  0  0  0  0  0  0  0  0
   -1.4437  -50.7584   24.6528 C   0  0  0  0  0  0  0  0  0  0  0  0
   -0.6716  -51.3340   25.8028 C   0  0  0  0  0  0  0  0  0  0  0  0
    0.8017  -51.0776   25.9202 C   0  0  0  0  0  0  0  0  0  0  0  0
   -0.2369  -50.5642   22.3602 C   0  0  0  0  0  0  0  0  0  0  0  0
    0.2524  -51.9820   22.3814 C   0  0  0  0  0  0  0  0  0  0  0  0
    0.7581  -52.6198   21.1215 C   0  0  0  0  0  0  0  0  0  0  0  0
    0.7746  -51.8399   19.8404 C   0  0  0  0  0  0  0  0  0  0  0  0
    0.2853  -50.4221   19.8192 C   0  0  0  0  0  0  0  0  0  0  0  0
   -0.2204  -49.7843   21.0791 C   0  0  0  0  0  0  0  0  0  0  0  0
    0.3017  -49.6421   18.5380 O   0  0  0  0  0  0  0  0  0  0  0  0
    0.8074  -50.2799   17.2781 C   0  0  0  0  0  0  0  0  0  0  0  0
    1.2967  -51.6977   17.2993 C   0  0  0  0  0  0  0  0  0  0  0  0
    1.2803  -52.4777   18.5804 O   0  0  0  0  0  0  0  0  0  0  0  0
   -0.6144  -48.9618   23.7694 H   0  0  0  0  0  0  0  0  0  0  0  0
    1.4039  -52.8811   28.8940 H   0  0  0  0  0  0  0  0  0  0  0  0
   -1.0830  -53.3139   28.6958 H   0  0  0  0  0  0  0  0  0  0  0  0
   -4.6317  -52.0231   25.4874 H   0  0  0  0  0  0  0  0  0  0  0  0
    1.2841  -50.5052   25.2098 H   0  0  0  0  0  0  0  0  0  0  0  0
    0.2411  -52.5186   23.2628 H   0  0  0  0  0  0  0  0  0  0  0  0
    1.0947  -53.5953   21.1361 H   0  0  0  0  0  0  0  0  0  0  0  0
   -0.5570  -48.8088   21.0645 H   0  0  0  0  0  0  0  0  0  0  0  0
    1.6211  -49.6775   16.9320 H   0  0  0  0  0  0  0  0  0  0  0  0
   -0.0650  -50.3300   16.6605 H   0  0  0  0  0  0  0  0  0  0  0  0
    2.3120  -51.6792   16.9619 H   0  0  0  0  0  0  0  0  0  0  0  0
    0.5848  -52.2127   16.6887 H   0  0  0  0  0  0  0  0  0  0  0  0
  1 13  1  0  0  0  0
  1 23  1  0  0  0  0
  2  3  1  0  0  0  0
  3  4  2  0  0  0  0
  4  5  1  0  0  0  0
  4 24  1  0  0  0  0
  5  6  2  0  0  0  0
  5 25  1  0  0  0  0
  6  7  1  0  0  0  0
  7  8  2  0  0  0  0
  8  9  1  0  0  0  0
  8 26  1  0  0  0  0
  9 10  2  0  0  0  0
 10  1  1  0  0  0  0
 10 11  1  0  0  0  0
 11 12  2  0  0  0  0
 11  6  1  0  0  0  0
 12  3  1  0  0  0  0
 12 27  1  0  0  0  0
 13 14  2  0  0  0  0
 14 15  1  0  0  0  0
 14 28  1  0  0  0  0
 15 16  2  0  0  0  0
 15 29  1  0  0  0  0
 16 17  1  0  0  0  0
 17 18  2  0  0  0  0
 17 19  1  0  0  0  0
 18 13  1  0  0  0  0
 18 30  1  0  0  0  0
 19 20  1  0  0  0  0
 20 21  1  0  0  0  0
 20 31  1  0  0  0  0
 20 32  1  0  0  0  0
 21 22  1  0  0  0  0
 21 33  1  0  0  0  0
 21 34  1  0  0  0  0
 22 16  1  0  0  0  0
M  END
>  <minimizedAffinity>
-7.85090

$$$$

 OpenBabel09092411003D

 37 40  0  0  0  0  0  0  0  0999 V2000
   -0.7453  -49.9580   23.6678 N   0  0  0  0  0  0  0  0  0  0  0  0
    3.0270  -51.4957   27.2252 C   0  0  0  0  0  0  0  0  0  0  0  0
    1.5488  -51.7242   27.1127 C   0  0  0  0  0  0  0  0  0  0  0  0
    0.8353  -52.5415   28.1485 C   0  0  0  0  0  0  0  0  0  0  0  0
   -0.6429  -52.7701   28.0360 C   0  0  0  0  0  0  0  0  0  0  0  0
   -1.4076  -52.1814   26.8877 C   0  0  0  0  0  0  0  0  0  0  0  0
   -2.8858  -52.4099   26.7752 N   0  0  0  0  0  0  0  0  0  0  0  0
   -3.6505  -51.8212   25.6270 C   0  0  0  0  0  0  0  0  0  0  0  0
   -2.9370  -51.0038   24.5911 N   0  0  0  0  0  0  0  0  0  0  0  0
   -1.4588  -50.7753   24.7036 C   0  0  0  0  0  0  0  0  0  0  0  0
   -0.6941  -51.3641   25.8519 C   0  0  0  0  0  0  0  0  0  0  0  0
    0.7841  -51.1355   25.9644 C   0  0  0  0  0  0  0  0  0  0  0  0
   -0.2693  -50.6035   22.4002 C   0  0  0  0  0  0  0  0  0  0  0  0
    0.1240  -52.0510   22.3975 C   0  0  0  0  0  0  0  0  0  0  0  0
    0.6000  -52.6966   21.1300 C   0  0  0  0  0  0  0  0  0  0  0  0
    0.6826  -51.8946   19.8651 C   0  0  0  0  0  0  0  0  0  0  0  0
    0.2893  -50.4471   19.8678 C   0  0  0  0  0  0  0  0  0  0  0  0
   -0.1867  -49.8015   21.1353 C   0  0  0  0  0  0  0  0  0  0  0  0
    0.3720  -49.6451   18.6028 O   0  0  0  0  0  0  0  0  0  0  0  0
    0.8480  -50.2906   17.3353 C   0  0  0  0  0  0  0  0  0  0  0  0
    1.2413  -51.7381   17.3326 C   0  0  0  0  0  0  0  0  0  0  0  0
    1.1586  -52.5401   18.5975 O   0  0  0  0  0  0  0  0  0  0  0  0
   -0.5894  -48.9979   23.8199 H   0  0  0  0  0  0  0  0  0  0  0  0
    3.3983  -51.9873   28.1000 H   0  0  0  0  0  0  0  0  0  0  0  0
    3.2212  -50.4459   27.2964 H   0  0  0  0  0  0  0  0  0  0  0  0
    3.5159  -51.8909   26.3594 H   0  0  0  0  0  0  0  0  0  0  0  0
    1.3614  -52.9465   28.9385 H   0  0  0  0  0  0  0  0  0  0  0  0
   -1.1338  -53.3324   28.7486 H   0  0  0  0  0  0  0  0  0  0  0  0
   -4.6675  -51.9785   25.5496 H   0  0  0  0  0  0  0  0  0  0  0  0
    1.2750  -50.5732   25.2518 H   0  0  0  0  0  0  0  0  0  0  0  0
    0.0671  -52.6028   23.2678 H   0  0  0  0  0  0  0  0  0  0  0  0
    0.8706  -53.6925   21.1282 H   0  0  0  0  0  0  0  0  0  0  0  0
   -0.4573  -48.8056   21.1371 H   0  0  0  0  0  0  0  0  0  0  0  0
    1.7040  -49.7373   17.0095 H   0  0  0  0  0  0  0  0  0  0  0  0
   -0.0188  -50.2701   16.7083 H   0  0  0  0  0  0  0  0  0  0  0  0
    2.2592  -51.7810   17.0057 H   0  0  0  0  0  0  0  0  0  0  0  0
    0.5035  -52.1923   16.7047 H   0  0  0  0  0  0  0  0  0  0  0  0
  1 13  1  0  0  0  0
  1 23  1  0  0  0  0
  2  3  1  0  0  0  0
  2 24  1  0  0  0  0
  2 25  1  0  0  0  0
  2 26  1  0  0  0  0
  3  4  2  0  0  0  0
  4  5  1  0  0  0  0
  4 27  1  0  0  0  0
  5  6  2  0  0  0  0
  5 28  1  0  0  0  0
  6  7  1  0  0  0  0
  7  8  2  0  0  0  0
  8  9  1  0  0  0  0
  8 29  1  0  0  0  0
  9 10  2  0  0  0  0
 10  1  1  0  0  0  0
 10 11  1  0  0  0  0
 11 12  2  0  0  0  0
 11  6  1  0  0  0  0
 12  3  1  0  0  0  0
 12 30  1  0  0  0  0
 13 14  2  0  0  0  0
 14 15  1  0  0  0  0
 14 31  1  0  0  0  0
 15 16  2  0  0  0  0
 15 32  1  0  0  0  0
 16 17  1  0  0  0  0
 17 18  2  0  0  0  0
 17 19  1  0  0  0  0
 18 13  1  0  0  0  0
 18 33  1  0  0  0  0
 19 20  1  0  0  0  0
 20 21  1  0  0  0  0
 20 34  1  0  0  0  0
 20 35  1  0  0  0  0
 21 22  1  0  0  0  0
 21 36  1  0  0  0  0
 21 37  1  0  0  0  0
 22 16  1  0  0  0  0
M  END
>  <minimizedAffinity>
-8.01955

$$$$

 OpenBabel09092411003D

 36 39  0  0  0  0  0  0  0  0999 V2000
    0.7197  -52.5752   22.2559 C   0  0  0  0  0  0  0  0  0  0  0  0
    1.2183  -53.5692   21.2492 C   0  0  0  0  0  0  0  0  0  0  0  0
    1.3020  -53.1913   19.8000 C   0  0  0  0  0  0  0  0  0  0  0  0
    0.8870  -51.8195   19.3574 C   0  0  0  0  0  0  0  0  0  0  0  0
    0.9707  -51.4417   17.9082 C   0  0  0  0  0  0  0  0  0  0  0  0
    0.5557  -50.0699   17.4656 N   0  0  0  0  0  0  0  0  0  0  0  0
    0.0570  -49.0759   18.4723 C   0  0  0  0  0  0  0  0  0  0  0  0
   -0.0266  -49.4537   19.9215 N   0  0  0  0  0  0  0  0  0  0  0  0
    0.3884  -50.8256   20.3641 C   0  0  0  0  0  0  0  0  0  0  0  0
    0.3047  -51.2034   21.8133 C   0  0  0  0  0  0  0  0  0  0  0  0
    0.5523  -53.3309   25.1543 C   0  0  0  0  0  0  0  0  0  0  0  0
    0.6360  -52.9531   23.7051 C   0  0  0  0  0  0  0  0  0  0  0  0
    1.4693  -52.4357   16.9016 N   0  0  0  0  0  0  0  0  0  0  0  0
    2.5871  -52.0656   15.9723 C   0  0  0  0  0  0  0  0  0  0  0  0
    3.9957  -52.4663   16.2965 C   0  0  0  0  0  0  0  0  0  0  0  0
    5.1135  -52.0963   15.3672 C   0  0  0  0  0  0  0  0  0  0  0  0
    4.8227  -51.3255   14.1137 C   0  0  0  0  0  0  0  0  0  0  0  0
    3.4140  -50.9248   13.7894 C   0  0  0  0  0  0  0  0  0  0  0  0
    2.2962  -51.2948   14.7187 C   0  0  0  0  0  0  0  0  0  0  0  0
    3.1232  -50.1540   12.5359 O   0  0  0  0  0  0  0  0  0  0  0  0
    4.2410  -49.7840   11.6066 C   0  0  0  0  0  0  0  0  0  0  0  0
    5.6496  -50.1847   11.9308 C   0  0  0  0  0  0  0  0  0  0  0  0
    5.9405  -50.9555   13.1844 O   0  0  0  0  0  0  0  0  0  0  0  0
    1.5037  -54.5131   21.5537 H   0  0  0  0  0  0  0  0  0  0  0  0
    1.6451  -53.8751   19.1074 H   0  0  0  0  0  0  0  0  0  0  0  0
   -0.2286  -48.1321   18.1678 H   0  0  0  0  0  0  0  0  0  0  0  0
   -0.0384  -50.5195   22.5058 H   0  0  0  0  0  0  0  0  0  0  0  0
    0.4968  -53.5813   26.1147 H   0  0  0  0  0  0  0  0  0  0  0  0
    1.0629  -53.3310   16.8508 H   0  0  0  0  0  0  0  0  0  0  0  0
    4.1958  -52.9966   17.1589 H   0  0  0  0  0  0  0  0  0  0  0  0
    6.0826  -52.3721   15.5903 H   0  0  0  0  0  0  0  0  0  0  0  0
    1.3270  -51.0191   14.4956 H   0  0  0  0  0  0  0  0  0  0  0  0
    4.2344  -48.7171   11.5249 H   0  0  0  0  0  0  0  0  0  0  0  0
    4.0225  -50.3464   10.7229 H   0  0  0  0  0  0  0  0  0  0  0  0
    6.2231  -49.2829   11.9826 H   0  0  0  0  0  0  0  0  0  0  0  0
    5.8930  -50.8785   11.1534 H   0  0  0  0  0  0  0  0  0  0  0  0
  1  2  2  0  0  0  0
  2  3  1  0  0  0  0
  2 24  1  0  0  0  0
  3  4  2  0  0  0  0
  3 25  1  0  0  0  0
  4  5  1  0  0  0  0
  5 13  1  0  0  0  0
  5  6  2  0  0  0  0
  6  7  1  0  0  0  0
  7  8  2  0  0  0  0
  7 26  1  0  0  0  0
  8  9  1  0  0  0  0
  9 10  2  0  0  0  0
  9  4  1  0  0  0  0
 10  1  1  0  0  0  0
 10 27  1  0  0  0  0
 11 12  3  0  0  0  0
 11 28  1  0  0  0  0
 12  1  1  0  0  0  0
 13 14  1  0  0  0  0
 13 29  1  0  0  0  0
 14 15  2  0  0  0  0
 15 16  1  0  0  0  0
 15 30  1  0  0  0  0
 16 17  2  0  0  0  0
 16 31  1  0  0  0  0
 17 18  1  0  0  0  0
 18 19  2  0  0  0  0
 18 20  1  0  0  0  0
 19 14  1  0  0  0  0
 19 32  1  0  0  0  0
 20 21  1  0  0  0  0
 21 22  1  0  0  0  0
 21 33  1  0  0  0  0
 21 34  1  0  0  0  0
 22 23  1  0  0  0  0
 22 35  1  0  0  0  0
 22 36  1  0  0  0  0
 23 17  1  0  0  0  0
M  END
>  <minimizedAffinity>
-7.40244

$$$$

 OpenBabel09092411003D

 33 36  0  0  0  0  0  0  0  0999 V2000
   -2.2549  -49.5085   25.8237 C   0  0  0  0  0  0  0  0  0  0  0  0
   -3.1808  -50.0279   26.8833 C   0  0  0  0  0  0  0  0  0  0  0  0
   -2.8987  -51.3434   27.5466 C   0  0  0  0  0  0  0  0  0  0  0  0
   -1.6907  -52.1394   27.1502 C   0  0  0  0  0  0  0  0  0  0  0  0
   -1.4086  -53.4549   27.8135 N   0  0  0  0  0  0  0  0  0  0  0  0
   -0.2007  -54.2509   27.4171 C   0  0  0  0  0  0  0  0  0  0  0  0
    0.7252  -53.7315   26.3574 N   0  0  0  0  0  0  0  0  0  0  0  0
    0.4431  -52.4160   25.6941 C   0  0  0  0  0  0  0  0  0  0  0  0
   -0.7649  -51.6200   26.0906 C   0  0  0  0  0  0  0  0  0  0  0  0
   -1.0470  -50.3045   25.4273 C   0  0  0  0  0  0  0  0  0  0  0  0
   -2.8192  -46.8775   24.4972 C   0  0  0  0  0  0  0  0  0  0  0  0
   -2.5370  -48.1930   25.1604 C   0  0  0  0  0  0  0  0  0  0  0  0
    1.3690  -51.8965   24.6345 N   0  0  0  0  0  0  0  0  0  0  0  0
    1.0942  -52.1893   23.1891 C   0  0  0  0  0  0  0  0  0  0  0  0
    1.2820  -53.5790   22.6566 C   0  0  0  0  0  0  0  0  0  0  0  0
    1.0073  -53.8718   21.2114 C   0  0  0  0  0  0  0  0  0  0  0  0
    0.5448  -52.7750   20.2987 C   0  0  0  0  0  0  0  0  0  0  0  0
    0.3570  -51.3853   20.8312 C   0  0  0  0  0  0  0  0  0  0  0  0
    0.6317  -51.0925   22.2765 C   0  0  0  0  0  0  0  0  0  0  0  0
   -0.1059  -50.5145   19.7010 O   0  0  0  0  0  0  0  0  0  0  0  0
   -0.2041  -51.3659   18.4700 C   0  0  0  0  0  0  0  0  0  0  0  0
    0.1980  -52.7629   18.8394 O   0  0  0  0  0  0  0  0  0  0  0  0
   -4.0119  -49.4802   27.1560 H   0  0  0  0  0  0  0  0  0  0  0  0
   -3.5357  -51.7008   28.2757 H   0  0  0  0  0  0  0  0  0  0  0  0
   -0.0066  -55.1559   27.8734 H   0  0  0  0  0  0  0  0  0  0  0  0
   -0.4100  -49.9471   24.6982 H   0  0  0  0  0  0  0  0  0  0  0  0
   -3.0062  -46.0058   24.0577 H   0  0  0  0  0  0  0  0  0  0  0  0
    2.1570  -51.3634   24.8876 H   0  0  0  0  0  0  0  0  0  0  0  0
    1.6002  -54.3336   23.2846 H   0  0  0  0  0  0  0  0  0  0  0  0
    1.1365  -54.8279   20.8450 H   0  0  0  0  0  0  0  0  0  0  0  0
    0.5025  -50.1364   22.6429 H   0  0  0  0  0  0  0  0  0  0  0  0
    0.4512  -50.9874   17.7135 H   0  0  0  0  0  0  0  0  0  0  0  0
   -1.2041  -51.3552   18.0895 H   0  0  0  0  0  0  0  0  0  0  0  0
  1  2  2  0  0  0  0
  2  3  1  0  0  0  0
  2 23  1  0  0  0  0
  3  4  2  0  0  0  0
  3 24  1  0  0  0  0
  4  5  1  0  0  0  0
  5  6  2  0  0  0  0
  6  7  1  0  0  0  0
  6 25  1  0  0  0  0
  7  8  2  0  0  0  0
  8 13  1  0  0  0  0
  8  9  1  0  0  0  0
  9 10  2  0  0  0  0
  9  4  1  0  0  0  0
 10  1  1  0  0  0  0
 10 26  1  0  0  0  0
 11 12  3  0  0  0  0
 11 27  1  0  0  0  0
 12  1  1  0  0  0  0
 13 14  1  0  0  0  0
 13 28  1  0  0  0  0
 14 15  2  0  0  0  0
 15 16  1  0  0  0  0
 15 29  1  0  0  0  0
 16 17  2  0  0  0  0
 16 30  1  0  0  0  0
 17 18  1  0  0  0  0
 18 19  2  0  0  0  0
 18 20  1  0  0  0  0
 19 14  1  0  0  0  0
 19 31  1  0  0  0  0
 20 21  1  0  0  0  0
 21 22  1  0  0  0  0
 21 32  1  0  0  0  0
 21 33  1  0  0  0  0
 22 17  1  0  0  0  0
M  END
>  <minimizedAffinity>
-7.35366

$$$$

 OpenBabel09092411003D

 39 42  0  0  0  0  0  0  0  0999 V2000
    1.4502  -52.3406   25.1934 N   0  0  0  0  0  0  0  0  0  0  0  0
    1.2726  -52.4672   23.7094 C   0  0  0  0  0  0  0  0  0  0  0  0
    1.3565  -53.8150   23.0563 C   0  0  0  0  0  0  0  0  0  0  0  0
    1.1790  -53.9416   21.5722 C   0  0  0  0  0  0  0  0  0  0  0  0
    0.9176  -52.7204   20.7412 C   0  0  0  0  0  0  0  0  0  0  0  0
    0.8337  -51.3728   21.3943 C   0  0  0  0  0  0  0  0  0  0  0  0
    1.0112  -51.2461   22.8783 C   0  0  0  0  0  0  0  0  0  0  0  0
    0.5833  -50.0383   20.7565 O   0  0  0  0  0  0  0  0  0  0  0  0
    0.3549  -49.7222   19.3080 C   0  0  0  0  0  0  0  0  0  0  0  0
    0.3205  -50.6623   18.1398 C   0  0  0  0  0  0  0  0  0  0  0  0
    0.5061  -52.1508   18.1313 C   0  0  0  0  0  0  0  0  0  0  0  0
    0.7718  -53.0667   19.2890 O   0  0  0  0  0  0  0  0  0  0  0  0
   -2.0200  -49.5770   25.9490 C   0  0  0  0  0  0  0  0  0  0  0  0
   -3.1238  -49.9949   26.8746 C   0  0  0  0  0  0  0  0  0  0  0  0
   -3.0710  -51.3340   27.5484 C   0  0  0  0  0  0  0  0  0  0  0  0
   -1.9143  -52.2552   27.2966 C   0  0  0  0  0  0  0  0  0  0  0  0
   -1.8614  -53.5943   27.9704 N   0  0  0  0  0  0  0  0  0  0  0  0
   -0.7047  -54.5156   27.7186 C   0  0  0  0  0  0  0  0  0  0  0  0
    0.3991  -54.0977   26.7930 N   0  0  0  0  0  0  0  0  0  0  0  0
    0.3463  -52.7585   26.1191 C   0  0  0  0  0  0  0  0  0  0  0  0
   -0.8105  -51.8373   26.3710 C   0  0  0  0  0  0  0  0  0  0  0  0
   -0.8633  -50.4983   25.6972 C   0  0  0  0  0  0  0  0  0  0  0  0
   -2.1256  -46.8989   24.6013 C   0  0  0  0  0  0  0  0  0  0  0  0
   -2.0728  -48.2379   25.2752 C   0  0  0  0  0  0  0  0  0  0  0  0
    2.2912  -51.9833   25.5599 H   0  0  0  0  0  0  0  0  0  0  0  0
    1.5363  -54.6551   23.6280 H   0  0  0  0  0  0  0  0  0  0  0  0
    1.2367  -54.8688   21.1229 H   0  0  0  0  0  0  0  0  0  0  0  0
    0.9535  -50.3188   23.3276 H   0  0  0  0  0  0  0  0  0  0  0  0
    1.1225  -49.0182   19.0630 H   0  0  0  0  0  0  0  0  0  0  0  0
   -0.6906  -49.5005   19.3601 H   0  0  0  0  0  0  0  0  0  0  0  0
    1.0758  -50.2942   17.4772 H   0  0  0  0  0  0  0  0  0  0  0  0
   -0.7321  -50.6357   17.9497 H   0  0  0  0  0  0  0  0  0  0  0  0
    1.3278  -52.3147   17.4658 H   0  0  0  0  0  0  0  0  0  0  0  0
   -0.5080  -52.4329   17.9392 H   0  0  0  0  0  0  0  0  0  0  0  0
   -3.9196  -49.3611   27.0479 H   0  0  0  0  0  0  0  0  0  0  0  0
   -3.8305  -51.6215   28.1852 H   0  0  0  0  0  0  0  0  0  0  0  0
   -0.6684  -55.4369   28.1822 H   0  0  0  0  0  0  0  0  0  0  0  0
   -0.1038  -50.2108   25.0603 H   0  0  0  0  0  0  0  0  0  0  0  0
   -2.1606  -46.0116   24.1547 H   0  0  0  0  0  0  0  0  0  0  0  0
  1  2  1  0  0  0  0
  1 25  1  0  0  0  0
  2  3  2  0  0  0  0
  3  4  1  0  0  0  0
  3 26  1  0  0  0  0
  4  5  2  0  0  0  0
  4 27  1  0  0  0  0
  5  6  1  0  0  0  0
  6  7  2  0  0  0  0
  6  8  1  0  0  0  0
  7  2  1  0  0  0  0
  7 28  1  0  0  0  0
  8  9  1  0  0  0  0
  9 10  1  0  0  0  0
  9 29  1  0  0  0  0
  9 30  1  0  0  0  0
 10 11  1  0  0  0  0
 10 31  1  0  0  0  0
 10 32  1  0  0  0  0
 11 12  1  0  0  0  0
 11 33  1  0  0  0  0
 11 34  1  0  0  0  0
 12  5  1  0  0  0  0
 13 14  2  0  0  0  0
 14 15  1  0  0  0  0
 14 35  1  0  0  0  0
 15 16  2  0  0  0  0
 15 36  1  0  0  0  0
 16 17  1  0  0  0  0
 17 18  2  0  0  0  0
 18 19  1  0  0  0  0
 18 37  1  0  0  0  0
 19 20  2  0  0  0  0
 20  1  1  0  0  0  0
 20 21  1  0  0  0  0
 21 22  2  0  0  0  0
 21 16  1  0  0  0  0
 22 13  1  0  0  0  0
 22 38  1  0  0  0  0
 23 24  3  0  0  0  0
 23 39  1  0  0  0  0
 24 13  1  0  0  0  0
M  END
>  <minimizedAffinity>
-7.79835

$$$$

 OpenBabel09092411003D

 43 46  0  0  0  0  0  0  0  0999 V2000
    0.4366  -52.6021   25.8540 C   0  0  0  0  0  0  0  0  0  0  0  0
    0.5141  -53.9575   26.4917 N   0  0  0  0  0  0  0  0  0  0  0  0
   -0.5227  -54.3763   27.4915 C   0  0  0  0  0  0  0  0  0  0  0  0
   -1.6369  -53.4397   27.8536 N   0  0  0  0  0  0  0  0  0  0  0  0
   -1.7144  -52.0842   27.2159 C   0  0  0  0  0  0  0  0  0  0  0  0
   -2.8287  -51.1476   27.5780 C   0  0  0  0  0  0  0  0  0  0  0  0
   -2.9062  -49.7921   26.9403 C   0  0  0  0  0  0  0  0  0  0  0  0
   -1.8694  -49.3733   25.9405 C   0  0  0  0  0  0  0  0  0  0  0  0
   -0.7551  -50.3099   25.5784 C   0  0  0  0  0  0  0  0  0  0  0  0
   -0.6776  -51.6654   26.2161 C   0  0  0  0  0  0  0  0  0  0  0  0
   -4.0204  -48.8555   27.3025 C   0  0  0  0  0  0  0  0  0  0  0  0
   -4.4676  -48.5130   28.6927 O   0  0  0  0  0  0  0  0  0  0  0  0
   -5.6067  -47.5427   28.5874 C   0  0  0  0  0  0  0  0  0  0  0  0
   -5.8635  -47.2855   27.1320 C   0  0  0  0  0  0  0  0  0  0  0  0
   -4.8831  -48.0969   26.3380 O   0  0  0  0  0  0  0  0  0  0  0  0
    1.4734  -52.1832   24.8541 N   0  0  0  0  0  0  0  0  0  0  0  0
    0.6957  -51.5336   21.0170 C   0  0  0  0  0  0  0  0  0  0  0  0
    0.7982  -52.9256   20.4675 C   0  0  0  0  0  0  0  0  0  0  0  0
    1.1257  -54.0700   21.3801 C   0  0  0  0  0  0  0  0  0  0  0  0
    1.3508  -53.8226   22.8423 C   0  0  0  0  0  0  0  0  0  0  0  0
    1.2483  -52.4307   23.3919 C   0  0  0  0  0  0  0  0  0  0  0  0
    0.9208  -51.2861   22.4792 C   0  0  0  0  0  0  0  0  0  0  0  0
    0.0406  -49.2448   19.1917 C   0  0  0  0  0  0  0  0  0  0  0  0
    0.3682  -50.3892   20.1044 C   0  0  0  0  0  0  0  0  0  0  0  0
   -1.9468  -48.0178   25.3028 O   0  0  0  0  0  0  0  0  0  0  0  0
   -2.3198  -47.8901   23.8554 C   0  0  0  0  0  0  0  0  0  0  0  0
   -0.4694  -55.3089   27.9302 H   0  0  0  0  0  0  0  0  0  0  0  0
   -3.5420  -51.4358   28.2659 H   0  0  0  0  0  0  0  0  0  0  0  0
   -0.0418  -50.0217   24.8905 H   0  0  0  0  0  0  0  0  0  0  0  0
   -3.2255  -49.5237   27.0445 H   0  0  0  0  0  0  0  0  0  0  0  0
   -5.3504  -46.6271   29.0782 H   0  0  0  0  0  0  0  0  0  0  0  0
   -6.4817  -47.9447   29.0539 H   0  0  0  0  0  0  0  0  0  0  0  0
   -5.7314  -46.2454   26.9182 H   0  0  0  0  0  0  0  0  0  0  0  0
   -6.8658  -47.5600   26.8772 H   0  0  0  0  0  0  0  0  0  0  0  0
    2.3016  -51.7458   25.1576 H   0  0  0  0  0  0  0  0  0  0  0  0
    0.6434  -53.0959   19.4615 H   0  0  0  0  0  0  0  0  0  0  0  0
    1.1962  -55.0276   21.0020 H   0  0  0  0  0  0  0  0  0  0  0  0
    1.5762  -54.6100   23.4702 H   0  0  0  0  0  0  0  0  0  0  0  0
    0.8504  -50.3284   22.8573 H   0  0  0  0  0  0  0  0  0  0  0  0
   -0.1765  -48.4864   18.5869 H   0  0  0  0  0  0  0  0  0  0  0  0
   -2.3238  -46.8567   23.5779 H   0  0  0  0  0  0  0  0  0  0  0  0
   -3.2939  -48.3048   23.7002 H   0  0  0  0  0  0  0  0  0  0  0  0
   -1.6078  -48.4177   23.2557 H   0  0  0  0  0  0  0  0  0  0  0  0
  1  2  2  0  0  0  0
  2  3  1  0  0  0  0
  3  4  2  0  0  0  0
  3 27  1  0  0  0  0
  4  5  1  0  0  0  0
  5  6  2  0  0  0  0
  6  7  1  0  0  0  0
  6 28  1  0  0  0  0
  7 11  1  0  0  0  0
  7  8  2  0  0  0  0
  8 25  1  0  0  0  0
  8  9  1  0  0  0  0
  9 10  2  0  0  0  0
  9 29  1  0  0  0  0
 10  1  1  0  0  0  0
 10  5  1  0  0  0  0
 11 12  1  0  0  0  0
 11 30  1  0  0  0  0
 12 13  1  0  0  0  0
 13 14  1  0  0  0  0
 13 31  1  0  0  0  0
 13 32  1  0  0  0  0
 14 15  1  0  0  0  0
 14 33  1  0  0  0  0
 14 34  1  0  0  0  0
 15 11  1  0  0  0  0
 16  1  1  0  0  0  0
 16 35  1  0  0  0  0
 17 18  2  0  0  0  0
 18 19  1  0  0  0  0
 18 36  1  0  0  0  0
 19 20  2  0  0  0  0
 19 37  1  0  0  0  0
 20 21  1  0  0  0  0
 20 38  1  0  0  0  0
 21 16  1  0  0  0  0
 21 22  2  0  0  0  0
 22 17  1  0  0  0  0
 22 39  1  0  0  0  0
 23 24  3  0  0  0  0
 23 40  1  0  0  0  0
 24 17  1  0  0  0  0
 25 26  1  0  0  0  0
 26 41  1  0  0  0  0
 26 42  1  0  0  0  0
 26 43  1  0  0  0  0
M  END
>  <minimizedAffinity>
-7.42505

$$$$

 OpenBabel09092411003D

 46 49  0  0  0  0  0  0  0  0999 V2000
    1.8887  -53.0068   19.4571 N   0  0  0  0  0  0  0  0  0  0  0  0
    1.5029  -53.1333   20.9012 C   0  0  0  0  0  0  0  0  0  0  0  0
    1.8787  -54.3635   21.6728 C   0  0  0  0  0  0  0  0  0  0  0  0
    1.4929  -54.4898   23.1169 C   0  0  0  0  0  0  0  0  0  0  0  0
    0.7315  -53.3862   23.7892 C   0  0  0  0  0  0  0  0  0  0  0  0
    0.3557  -52.1561   23.0175 C   0  0  0  0  0  0  0  0  0  0  0  0
    0.7414  -52.0296   21.5735 C   0  0  0  0  0  0  0  0  0  0  0  0
   -0.3376  -50.8292   23.1113 O   0  0  0  0  0  0  0  0  0  0  0  0
   -1.0837  -49.9125   24.0350 C   0  0  0  0  0  0  0  0  0  0  0  0
   -1.5975  -49.7560   25.4355 C   0  0  0  0  0  0  0  0  0  0  0  0
   -1.6829  -50.4196   26.7780 O   0  0  0  0  0  0  0  0  0  0  0  0
   -1.3071  -51.6497   27.5497 C   0  0  0  0  0  0  0  0  0  0  0  0
   -0.6138  -52.9766   27.4559 C   0  0  0  0  0  0  0  0  0  0  0  0
    0.1323  -53.8933   26.5322 C   0  0  0  0  0  0  0  0  0  0  0  0
    0.6461  -54.0498   25.1317 O   0  0  0  0  0  0  0  0  0  0  0  0
    3.4726  -51.9794   15.3723 C   0  0  0  0  0  0  0  0  0  0  0  0
    2.6718  -51.1021   14.4562 C   0  0  0  0  0  0  0  0  0  0  0  0
    1.3431  -50.5673   14.9017 C   0  0  0  0  0  0  0  0  0  0  0  0
    0.8152  -50.9098   16.2634 C   0  0  0  0  0  0  0  0  0  0  0  0
   -0.5136  -50.3750   16.7089 N   0  0  0  0  0  0  0  0  0  0  0  0
   -1.0415  -50.7175   18.0705 C   0  0  0  0  0  0  0  0  0  0  0  0
   -0.2408  -51.5947   18.9866 N   0  0  0  0  0  0  0  0  0  0  0  0
    1.0879  -52.1295   18.5410 C   0  0  0  0  0  0  0  0  0  0  0  0
    1.6159  -51.7871   17.1794 C   0  0  0  0  0  0  0  0  0  0  0  0
    2.9446  -52.3219   16.7339 C   0  0  0  0  0  0  0  0  0  0  0  0
    6.1301  -53.0491   14.4813 C   0  0  0  0  0  0  0  0  0  0  0  0
    4.8013  -52.5143   14.9268 C   0  0  0  0  0  0  0  0  0  0  0  0
    2.6674  -53.4995   19.1106 H   0  0  0  0  0  0  0  0  0  0  0  0
    2.4026  -55.1229   21.2103 H   0  0  0  0  0  0  0  0  0  0  0  0
    1.7514  -55.3361   23.6479 H   0  0  0  0  0  0  0  0  0  0  0  0
    0.4829  -51.1833   21.0426 H   0  0  0  0  0  0  0  0  0  0  0  0
   -1.9912  -49.7827   23.4831 H   0  0  0  0  0  0  0  0  0  0  0  0
   -0.1763  -49.4080   24.2939 H   0  0  0  0  0  0  0  0  0  0  0  0
   -2.6357  -49.5862   25.2401 H   0  0  0  0  0  0  0  0  0  0  0  0
   -0.7014  -49.2481   25.7251 H   0  0  0  0  0  0  0  0  0  0  0  0
   -2.2714  -51.9620   27.8925 H   0  0  0  0  0  0  0  0  0  0  0  0
   -0.4046  -51.1833   27.8856 H   0  0  0  0  0  0  0  0  0  0  0  0
   -1.4017  -53.6266   27.7747 H   0  0  0  0  0  0  0  0  0  0  0  0
    0.3039  -52.5394   27.7900 H   0  0  0  0  0  0  0  0  0  0  0  0
   -0.4656  -54.7767   26.6160 H   0  0  0  0  0  0  0  0  0  0  0  0
    1.0663  -53.4760   26.8458 H   0  0  0  0  0  0  0  0  0  0  0  0
    3.0350  -50.8665   13.5194 H   0  0  0  0  0  0  0  0  0  0  0  0
    0.7922  -49.9638   14.2714 H   0  0  0  0  0  0  0  0  0  0  0  0
   -1.9557  -50.3496   18.3770 H   0  0  0  0  0  0  0  0  0  0  0  0
    3.4955  -52.9255   17.3642 H   0  0  0  0  0  0  0  0  0  0  0  0
    7.0106  -53.4035   14.1861 H   0  0  0  0  0  0  0  0  0  0  0  0
  1  2  1  0  0  0  0
  1 28  1  0  0  0  0
  2  3  2  0  0  0  0
  3  4  1  0  0  0  0
  3 29  1  0  0  0  0
  4  5  2  0  0  0  0
  4 30  1  0  0  0  0
  5  6  1  0  0  0  0
  6  7  2  0  0  0  0
  6  8  1  0  0  0  0
  7  2  1  0  0  0  0
  7 31  1  0  0  0  0
  8  9  1  0  0  0  0
  9 10  1  0  0  0  0
  9 32  1  0  0  0  0
  9 33  1  0  0  0  0
 10 11  1  0  0  0  0
 10 34  1  0  0  0  0
 10 35  1  0  0  0  0
 11 12  1  0  0  0  0
 12 13  1  0  0  0  0
 12 36  1  0  0  0  0
 12 37  1  0  0  0  0
 13 14  1  0  0  0  0
 13 38  1  0  0  0  0
 13 39  1  0  0  0  0
 14 15  1  0  0  0  0
 14 40  1  0  0  0  0
 14 41  1  0  0  0  0
 15  5  1  0  0  0  0
 16 17  2  0  0  0  0
 17 18  1  0  0  0  0
 17 42  1  0  0  0  0
 18 19  2  0  0  0  0
 18 43  1  0  0  0  0
 19 20  1  0  0  0  0
 20 21  2  0  0  0  0
 21 22  1  0  0  0  0
 21 44  1  0  0  0  0
 22 23  2  0  0  0  0
 23  1  1  0  0  0  0
 23 24  1  0  0  0  0
 24 25  2  0  0  0  0
 24 19  1  0  0  0  0
 25 16  1  0  0  0  0
 25 45  1  0  0  0  0
 26 27  3  0  0  0  0
 26 46  1  0  0  0  0
 27 16  1  0  0  0  0
M  END
>  <minimizedAffinity>
-8.78015

$$$$

 OpenBabel09092411003D

 46 48  0  0  0  0  0  0  0  0999 V2000
    1.8410  -52.5866   20.0563 C   0  0  0  0  0  0  0  0  0  0  0  0
    1.3450  -51.3274   20.7031 C   0  0  0  0  0  0  0  0  0  0  0  0
    0.6898  -51.3846   22.0512 C   0  0  0  0  0  0  0  0  0  0  0  0
    0.5306  -52.7010   22.7525 C   0  0  0  0  0  0  0  0  0  0  0  0
    1.0266  -53.9602   22.1056 N   0  0  0  0  0  0  0  0  0  0  0  0
    1.6818  -53.9030   20.7575 N   0  0  0  0  0  0  0  0  0  0  0  0
    0.2805  -50.7840   15.2018 C   0  0  0  0  0  0  0  0  0  0  0  0
    1.6743  -51.3086   15.0225 C   0  0  2  0  0  0  0  0  0  0  0  0
    2.3295  -51.2514   13.6744 C   0  0  0  0  0  0  0  0  0  0  0  0
    3.7233  -51.7759   13.4950 N   0  3  2  0  0  0  0  0  0  0  0  0
    4.3785  -51.7187   12.1469 C   0  0  0  0  0  0  0  0  0  0  0  0
    4.4618  -52.3577   14.6638 C   0  0  0  0  0  0  0  0  0  0  0  0
    3.8066  -52.4149   16.0118 C   0  0  0  0  0  0  0  0  0  0  0  0
    2.4128  -51.8904   16.1912 N   0  0  0  0  0  0  0  0  0  0  0  0
    1.7576  -51.9476   17.5394 C   0  0  0  0  0  0  0  0  0  0  0  0
    0.3638  -51.4230   17.7187 O   0  0  0  0  0  0  0  0  0  0  0  0
    2.4962  -52.5294   18.7081 N   0  0  0  0  0  0  0  0  0  0  0  0
   -0.1246  -52.7582   24.1006 O   0  0  0  0  0  0  0  0  0  0  0  0
   -1.0046  -51.6318   24.5553 C   0  0  0  0  0  0  0  0  0  0  0  0
   -0.4494  -50.5576   25.4430 C   0  0  0  0  0  0  0  0  0  0  0  0
    0.9858  -50.6100   25.8761 F   0  0  0  0  0  0  0  0  0  0  0  0
   -1.3294  -49.4312   25.8976 C   0  0  0  0  0  0  0  0  0  0  0  0
   -2.7646  -49.3788   25.4645 C   0  0  0  0  0  0  0  0  0  0  0  0
   -3.3197  -50.4529   24.5768 C   0  0  0  0  0  0  0  0  0  0  0  0
   -2.4397  -51.5794   24.1222 C   0  0  0  0  0  0  0  0  0  0  0  0
   -2.9948  -52.6535   23.2345 F   0  0  0  0  0  0  0  0  0  0  0  0
    1.4545  -50.4217   20.2206 H   0  0  0  0  0  0  0  0  0  0  0  0
    0.3485  -50.5183   22.4962 H   0  0  0  0  0  0  0  0  0  0  0  0
   -0.0832  -50.4111   14.2672 H   0  0  0  0  0  0  0  0  0  0  0  0
    0.2869  -49.9936   15.9230 H   0  0  0  0  0  0  0  0  0  0  0  0
   -0.3564  -51.5731   15.5432 H   0  0  0  0  0  0  0  0  0  0  0  0
    2.2024  -50.7668   15.7791 H   0  0  0  0  0  0  0  0  0  0  0  0
    2.3469  -50.2220   13.3829 H   0  0  0  0  0  0  0  0  0  0  0  0
    1.7375  -51.9197   13.0847 H   0  0  0  0  0  0  0  0  0  0  0  0
    4.3188  -51.1623   12.9388 H   0  0  0  0  0  0  0  0  0  0  0  0
    4.1431  -52.6065   11.5980 H   0  0  0  0  0  0  0  0  0  0  0  0
    5.4390  -51.6452   12.2686 H   0  0  0  0  0  0  0  0  0  0  0  0
    4.0207  -50.8635   11.6125 H   0  0  0  0  0  0  0  0  0  0  0  0
    5.3575  -51.7840   14.7798 H   0  0  0  0  0  0  0  0  0  0  0  0
    4.5689  -53.3887   14.3985 H   0  0  0  0  0  0  0  0  0  0  0  0
    4.4324  -51.8647   16.6830 H   0  0  0  0  0  0  0  0  0  0  0  0
    3.6989  -53.4647   16.1885 H   0  0  0  0  0  0  0  0  0  0  0  0
    3.4110  -52.8737   18.5903 H   0  0  0  0  0  0  0  0  0  0  0  0
   -0.9474  -48.6922   26.5084 H   0  0  0  0  0  0  0  0  0  0  0  0
   -3.3700  -48.6038   25.7773 H   0  0  0  0  0  0  0  0  0  0  0  0
   -4.3071  -50.4169   24.2788 H   0  0  0  0  0  0  0  0  0  0  0  0
  1  2  2  0  0  0  0
  2  3  1  0  0  0  0
  2 27  1  0  0  0  0
  3  4  2  0  0  0  0
  3 28  1  0  0  0  0
  4 18  1  0  0  0  0
  4  5  1  0  0  0  0
  5  6  2  0  0  0  0
  6  1  1  0  0  0  0
  7 29  1  0  0  0  0
  7 30  1  0  0  0  0
  7 31  1  0  0  0  0
  8  7  1  0  0  0  0
  8  9  1  0  0  0  0
  8 32  1  1  0  0  0
  9 10  1  0  0  0  0
  9 33  1  0  0  0  0
  9 34  1  0  0  0  0
 10 11  1  0  0  0  0
 10 12  1  0  0  0  0
 10 35  1  1  0  0  0
 11 36  1  0  0  0  0
 11 37  1  0  0  0  0
 11 38  1  0  0  0  0
 12 13  1  0  0  0  0
 12 39  1  0  0  0  0
 12 40  1  0  0  0  0
 13 14  1  0  0  0  0
 13 41  1  0  0  0  0
 13 42  1  0  0  0  0
 14 15  1  0  0  0  0
 14  8  1  0  0  0  0
 15 16  2  0  0  0  0
 15 17  1  0  0  0  0
 17  1  1  0  0  0  0
 17 43  1  0  0  0  0
 18 19  1  0  0  0  0
 19 20  2  0  0  0  0
 20 21  1  0  0  0  0
 20 22  1  0  0  0  0
 22 23  2  0  0  0  0
 22 44  1  0  0  0  0
 23 24  1  0  0  0  0
 23 45  1  0  0  0  0
 24 25  2  0  0  0  0
 24 46  1  0  0  0  0
 25 26  1  0  0  0  0
 25 19  1  0  0  0  0
M  CHG  1  10   1
M  END
>  <minimizedAffinity>
-7.50511

$$$$

 OpenBabel09092411003D

 46 48  0  0  0  0  0  0  0  0999 V2000
   -2.2767  -51.1933   24.7082 C   0  0  0  0  0  0  0  0  0  0  0  0
   -3.4128  -51.6113   25.5940 C   0  0  0  0  0  0  0  0  0  0  0  0
   -4.8291  -51.3997   25.1474 N   0  0  0  0  0  0  0  0  0  0  0  0
   -3.1327  -52.2408   26.9263 N   0  0  0  0  0  0  0  0  0  0  0  0
   -1.7164  -52.4523   27.3730 C   0  0  0  0  0  0  0  0  0  0  0  0
   -0.5803  -52.0343   26.4873 N   0  0  0  0  0  0  0  0  0  0  0  0
   -0.8604  -51.4048   25.1548 C   0  0  0  0  0  0  0  0  0  0  0  0
   -3.1172  -49.3048   20.7111 C   0  0  0  0  0  0  0  0  0  0  0  0
   -2.7816  -48.4430   21.8920 C   0  0  1  0  0  0  0  0  0  0  0  0
   -2.7262  -46.9517   21.7407 C   0  0  0  0  0  0  0  0  0  0  0  0
   -2.3907  -46.0899   22.9217 N   0  3  2  0  0  0  0  0  0  0  0  0
   -2.3353  -44.5985   22.7702 C   0  0  0  0  0  0  0  0  0  0  0  0
   -2.1105  -46.7194   24.2540 C   0  0  0  0  0  0  0  0  0  0  0  0
   -2.1659  -48.2106   24.4054 C   0  0  0  0  0  0  0  0  0  0  0  0
   -2.5015  -49.0724   23.2244 N   0  0  0  0  0  0  0  0  0  0  0  0
   -2.5568  -50.5638   23.3758 C   0  0  0  0  0  0  0  0  0  0  0  0
   -2.8924  -51.4256   22.1948 O   0  0  0  0  0  0  0  0  0  0  0  0
    0.2757  -50.9869   24.2691 O   0  0  0  0  0  0  0  0  0  0  0  0
    0.6251  -51.8048   23.0612 C   0  0  0  0  0  0  0  0  0  0  0  0
    0.9893  -53.2517   23.2150 C   0  0  0  0  0  0  0  0  0  0  0  0
    1.0041  -53.8808   24.5767 F   0  0  0  0  0  0  0  0  0  0  0  0
    1.3388  -54.0696   22.0072 C   0  0  0  0  0  0  0  0  0  0  0  0
    1.3241  -53.4406   20.6455 C   0  0  0  0  0  0  0  0  0  0  0  0
    0.9598  -51.9936   20.4917 C   0  0  0  0  0  0  0  0  0  0  0  0
    0.6104  -51.1757   21.6996 C   0  0  0  0  0  0  0  0  0  0  0  0
    0.2462  -49.7287   21.5458 F   0  0  0  0  0  0  0  0  0  0  0  0
   -5.0130  -50.9865   24.2729 H   0  0  0  0  0  0  0  0  0  0  0  0
   -5.5748  -51.6740   25.7288 H   0  0  0  0  0  0  0  0  0  0  0  0
   -1.5237  -52.8854   28.2897 H   0  0  0  0  0  0  0  0  0  0  0  0
   -3.2842  -48.6862   19.8541 H   0  0  0  0  0  0  0  0  0  0  0  0
   -4.0015  -49.8693   20.9213 H   0  0  0  0  0  0  0  0  0  0  0  0
   -2.3053  -49.9736   20.5154 H   0  0  0  0  0  0  0  0  0  0  0  0
   -2.3021  -48.8008   21.0049 H   0  0  0  0  0  0  0  0  0  0  0  0
   -3.6897  -46.6403   21.3949 H   0  0  0  0  0  0  0  0  0  0  0  0
   -1.8955  -46.8019   21.0831 H   0  0  0  0  0  0  0  0  0  0  0  0
   -3.0529  -45.9625   23.6870 H   0  0  0  0  0  0  0  0  0  0  0  0
   -1.6661  -44.3454   21.9746 H   0  0  0  0  0  0  0  0  0  0  0  0
   -1.9873  -44.1600   23.6821 H   0  0  0  0  0  0  0  0  0  0  0  0
   -3.3130  -44.2262   22.5459 H   0  0  0  0  0  0  0  0  0  0  0  0
   -2.8204  -46.3124   24.9434 H   0  0  0  0  0  0  0  0  0  0  0  0
   -1.0779  -46.4935   24.4205 H   0  0  0  0  0  0  0  0  0  0  0  0
   -2.8987  -48.4177   25.1571 H   0  0  0  0  0  0  0  0  0  0  0  0
   -1.1515  -48.4737   24.6215 H   0  0  0  0  0  0  0  0  0  0  0  0
    1.5894  -55.0651   22.1130 H   0  0  0  0  0  0  0  0  0  0  0  0
    1.5646  -54.0033   19.8145 H   0  0  0  0  0  0  0  0  0  0  0  0
    0.9496  -51.5608   19.5549 H   0  0  0  0  0  0  0  0  0  0  0  0
  1  2  2  0  0  0  0
  2  3  1  0  0  0  0
  2  4  1  0  0  0  0
  3 27  1  0  0  0  0
  3 28  1  0  0  0  0
  4  5  2  0  0  0  0
  5  6  1  0  0  0  0
  5 29  1  0  0  0  0
  6  7  2  0  0  0  0
  7 18  1  0  0  0  0
  7  1  1  0  0  0  0
  8 30  1  0  0  0  0
  8 31  1  0  0  0  0
  8 32  1  0  0  0  0
  9  8  1  0  0  0  0
  9 10  1  0  0  0  0
  9 33  1  6  0  0  0
 10 11  1  0  0  0  0
 10 34  1  0  0  0  0
 10 35  1  0  0  0  0
 11 12  1  0  0  0  0
 11 13  1  0  0  0  0
 11 36  1  1  0  0  0
 12 37  1  0  0  0  0
 12 38  1  0  0  0  0
 12 39  1  0  0  0  0
 13 14  1  0  0  0  0
 13 40  1  0  0  0  0
 13 41  1  0  0  0  0
 14 15  1  0  0  0  0
 14 42  1  0  0  0  0
 14 43  1  0  0  0  0
 15 16  1  0  0  0  0
 15  9  1  0  0  0  0
 16 17  2  0  0  0  0
 16  1  1  0  0  0  0
 18 19  1  0  0  0  0
 19 20  2  0  0  0  0
 20 21  1  0  0  0  0
 20 22  1  0  0  0  0
 22 23  2  0  0  0  0
 22 44  1  0  0  0  0
 23 24  1  0  0  0  0
 23 45  1  0  0  0  0
 24 25  2  0  0  0  0
 24 46  1  0  0  0  0
 25 26  1  0  0  0  0
 25 19  1  0  0  0  0
M  CHG  1  11   1
M  END
>  <minimizedAffinity>
-7.68785

$$$$

 OpenBabel09092411003D

 49 51  0  0  0  0  0  0  0  0999 V2000
    0.4272  -51.0291   21.0977 C   0  0  2  0  0  0  0  0  0  0  0  0
   -0.2962  -49.8695   21.7156 C   0  0  0  0  0  0  0  0  0  0  0  0
   -0.6636  -48.6815   20.8767 C   0  0  2  0  0  0  0  0  0  0  0  0
   -1.3870  -47.5218   21.4947 C   0  0  0  0  0  0  0  0  0  0  0  0
   -0.3076  -48.6533   19.4199 C   0  0  0  0  0  0  0  0  0  0  0  0
    0.4158  -49.8129   18.8019 C   0  0  0  0  0  0  0  0  0  0  0  0
    0.7832  -51.0008   19.6408 N   0  0  0  0  0  0  0  0  0  0  0  0
    1.5066  -52.1605   19.0229 C   0  0  0  0  0  0  0  0  0  0  0  0
    1.8740  -53.3484   19.8618 O   0  0  0  0  0  0  0  0  0  0  0  0
    1.8626  -52.1322   17.5660 C   0  0  2  0  0  0  0  0  0  0  0  0
    1.4442  -52.0503   16.1279 C   0  0  0  0  0  0  0  0  0  0  0  0
    2.8976  -52.1652   16.4808 C   0  0  1  0  0  0  0  0  0  0  0  0
    4.3343  -52.2505   16.0580 C   0  0  0  0  0  0  0  0  0  0  0  0
    0.7946  -52.2171   21.9366 C   0  0  0  0  0  0  0  0  0  0  0  0
    1.3988  -52.0180   23.2950 N   0  0  0  0  0  0  0  0  0  0  0  0
   -0.7888  -52.2679   26.5969 C   0  0  0  0  0  0  0  0  0  0  0  0
   -0.6312  -53.7214   26.9320 N   0  0  0  0  0  0  0  0  0  0  0  0
    0.2030  -54.6072   26.0548 C   0  0  0  0  0  0  0  0  0  0  0  0
    0.8797  -54.0394   24.8425 N   0  0  0  0  0  0  0  0  0  0  0  0
    0.7221  -52.5858   24.5074 C   0  0  0  0  0  0  0  0  0  0  0  0
   -0.1121  -51.7001   25.3846 C   0  0  0  0  0  0  0  0  0  0  0  0
   -0.2697  -50.2465   25.0495 F   0  0  0  0  0  0  0  0  0  0  0  0
   -3.0712  -51.1588   27.1538 C   0  0  0  0  0  0  0  0  0  0  0  0
   -1.6230  -51.3821   27.4741 O   0  0  0  0  0  0  0  0  0  0  0  0
    1.1155  -50.7108   21.8525 H   0  0  0  0  0  0  0  0  0  0  0  0
    0.3225  -49.5073   22.5099 H   0  0  0  0  0  0  0  0  0  0  0  0
   -1.2454  -50.2855   21.9820 H   0  0  0  0  0  0  0  0  0  0  0  0
   -0.9502  -47.6506   20.8685 H   0  0  0  0  0  0  0  0  0  0  0  0
   -1.8712  -47.8416   22.3937 H   0  0  0  0  0  0  0  0  0  0  0  0
   -2.1189  -47.1510   20.8079 H   0  0  0  0  0  0  0  0  0  0  0  0
   -0.6869  -46.7456   21.7233 H   0  0  0  0  0  0  0  0  0  0  0  0
    0.3064  -47.7901   19.2687 H   0  0  0  0  0  0  0  0  0  0  0  0
   -1.2605  -48.6705   18.9335 H   0  0  0  0  0  0  0  0  0  0  0  0
    1.3277  -49.4273   18.3962 H   0  0  0  0  0  0  0  0  0  0  0  0
   -0.2999  -50.2103   18.1128 H   0  0  0  0  0  0  0  0  0  0  0  0
    1.6087  -52.1523   18.6052 H   0  0  0  0  0  0  0  0  0  0  0  0
    1.0603  -51.1326   15.7339 H   0  0  0  0  0  0  0  0  0  0  0  0
    0.7716  -52.6000   15.5031 H   0  0  0  0  0  0  0  0  0  0  0  0
    3.9224  -52.2262   16.1792 H   0  0  0  0  0  0  0  0  0  0  0  0
    4.7718  -51.2743   16.0822 H   0  0  0  0  0  0  0  0  0  0  0  0
    4.3909  -52.6421   15.0639 H   0  0  0  0  0  0  0  0  0  0  0  0
    4.8651  -52.8959   16.7263 H   0  0  0  0  0  0  0  0  0  0  0  0
   -0.1014  -52.7849   22.0773 H   0  0  0  0  0  0  0  0  0  0  0  0
    1.5854  -52.6757   21.3805 H   0  0  0  0  0  0  0  0  0  0  0  0
    2.2395  -51.5147   23.3909 H   0  0  0  0  0  0  0  0  0  0  0  0
    0.3114  -55.6073   26.2853 H   0  0  0  0  0  0  0  0  0  0  0  0
   -3.5010  -50.5045   27.8832 H   0  0  0  0  0  0  0  0  0  0  0  0
   -3.5879  -52.0957   27.1665 H   0  0  0  0  0  0  0  0  0  0  0  0
   -3.1578  -50.7169   26.1832 H   0  0  0  0  0  0  0  0  0  0  0  0
  1 14  1  0  0  0  0
  1  2  1  0  0  0  0
  1 25  1  1  0  0  0
  2  3  1  0  0  0  0
  2 26  1  0  0  0  0
  2 27  1  0  0  0  0
  3  4  1  0  0  0  0
  3  5  1  0  0  0  0
  3 28  1  1  0  0  0
  4 29  1  0  0  0  0
  4 30  1  0  0  0  0
  4 31  1  0  0  0  0
  5  6  1  0  0  0  0
  5 32  1  0  0  0  0
  5 33  1  0  0  0  0
  6  7  1  0  0  0  0
  6 34  1  0  0  0  0
  6 35  1  0  0  0  0
  7  8  1  0  0  0  0
  7  1  1  0  0  0  0
  8  9  2  0  0  0  0
 10  8  1  0  0  0  0
 10 11  1  0  0  0  0
 10 36  1  1  0  0  0
 11 12  1  0  0  0  0
 11 37  1  0  0  0  0
 11 38  1  0  0  0  0
 12 13  1  0  0  0  0
 12 10  1  0  0  0  0
 12 39  1  6  0  0  0
 13 40  1  0  0  0  0
 13 41  1  0  0  0  0
 13 42  1  0  0  0  0
 14 43  1  0  0  0  0
 14 44  1  0  0  0  0
 15 14  1  0  0  0  0
 15 45  1  0  0  0  0
 16 17  2  0  0  0  0
 17 18  1  0  0  0  0
 18 19  2  0  0  0  0
 18 46  1  0  0  0  0
 19 20  1  0  0  0  0
 20 15  1  0  0  0  0
 20 21  2  0  0  0  0
 21 22  1  0  0  0  0
 21 16  1  0  0  0  0
 23 24  1  0  0  0  0
 23 47  1  0  0  0  0
 23 48  1  0  0  0  0
 23 49  1  0  0  0  0
 24 16  1  0  0  0  0
M  END
>  <minimizedAffinity>
-7.65882

$$$$

 OpenBabel09092411003D

 46 48  0  0  0  0  0  0  0  0999 V2000
    0.6325  -52.1611   20.2803 C   0  0  0  0  0  0  0  0  0  0  0  0
    0.9521  -53.6068   20.5208 N   0  0  0  0  0  0  0  0  0  0  0  0
    1.1485  -54.1087   21.9206 C   0  0  0  0  0  0  0  0  0  0  0  0
    1.0252  -53.1650   23.0799 N   0  0  0  0  0  0  0  0  0  0  0  0
    0.7056  -51.7193   22.8394 C   0  0  0  0  0  0  0  0  0  0  0  0
    0.5093  -51.2173   21.4396 C   0  0  0  0  0  0  0  0  0  0  0  0
    0.1897  -49.7716   21.1991 F   0  0  0  0  0  0  0  0  0  0  0  0
    3.6445  -52.2981   15.7903 C   0  0  0  0  0  0  0  0  0  0  0  0
    2.3787  -51.5832   15.4205 C   0  0  1  0  0  0  0  0  0  0  0  0
    2.1823  -51.0813   14.0207 C   0  0  0  0  0  0  0  0  0  0  0  0
    0.9165  -50.3665   13.6509 N   0  3  2  0  0  0  0  0  0  0  0  0
    0.7202  -49.8645   12.2510 C   0  0  0  0  0  0  0  0  0  0  0  0
   -0.1529  -50.1535   14.6809 C   0  0  0  0  0  0  0  0  0  0  0  0
    0.0435  -50.6554   16.0807 C   0  0  0  0  0  0  0  0  0  0  0  0
    1.3093  -51.3703   16.4505 N   0  0  0  0  0  0  0  0  0  0  0  0
    1.5056  -51.8722   17.8504 C   0  0  0  0  0  0  0  0  0  0  0  0
    2.7714  -52.5870   18.2202 O   0  0  0  0  0  0  0  0  0  0  0  0
    0.4362  -51.6592   18.8804 N   0  0  0  0  0  0  0  0  0  0  0  0
    0.5824  -50.7755   23.9988 O   0  0  0  0  0  0  0  0  0  0  0  0
    1.0527  -51.1944   25.3602 C   0  0  0  0  0  0  0  0  0  0  0  0
    2.5012  -51.0626   25.7267 C   0  0  0  0  0  0  0  0  0  0  0  0
    2.9715  -51.4815   27.0880 C   0  0  0  0  0  0  0  0  0  0  0  0
    1.9933  -52.0322   28.0829 C   0  0  0  0  0  0  0  0  0  0  0  0
    0.5447  -52.1640   27.7164 C   0  0  0  0  0  0  0  0  0  0  0  0
    0.0744  -51.7451   26.3550 C   0  0  0  0  0  0  0  0  0  0  0  0
   -1.3741  -51.8768   25.9885 Cl  0  0  0  0  0  0  0  0  0  0  0  0
    1.3685  -55.1033   22.0860 H   0  0  0  0  0  0  0  0  0  0  0  0
    4.2845  -52.3558   14.9347 H   0  0  0  0  0  0  0  0  0  0  0  0
    3.4105  -53.2861   16.1280 H   0  0  0  0  0  0  0  0  0  0  0  0
    4.1414  -51.7623   16.5719 H   0  0  0  0  0  0  0  0  0  0  0  0
    3.1038  -50.7972   15.3849 H   0  0  0  0  0  0  0  0  0  0  0  0
    2.2573  -51.9309   13.3746 H   0  0  0  0  0  0  0  0  0  0  0  0
    2.9304  -50.3224   13.9243 H   0  0  0  0  0  0  0  0  0  0  0  0
    0.3914  -51.2390   13.5921 H   0  0  0  0  0  0  0  0  0  0  0  0
    1.2222  -48.9268   12.1347 H   0  0  0  0  0  0  0  0  0  0  0  0
   -0.3250  -49.7355   12.0616 H   0  0  0  0  0  0  0  0  0  0  0  0
    1.1234  -50.5732   11.5581 H   0  0  0  0  0  0  0  0  0  0  0  0
   -1.0397  -50.6210   14.3067 H   0  0  0  0  0  0  0  0  0  0  0  0
   -0.1705  -49.0904   14.8010 H   0  0  0  0  0  0  0  0  0  0  0  0
   -0.7624  -51.3296   16.2830 H   0  0  0  0  0  0  0  0  0  0  0  0
    0.0904  -49.7569   16.6598 H   0  0  0  0  0  0  0  0  0  0  0  0
   -0.3946  -51.1900   18.6377 H   0  0  0  0  0  0  0  0  0  0  0  0
    3.1742  -50.6837   25.0422 H   0  0  0  0  0  0  0  0  0  0  0  0
    3.9681  -51.3908   27.3401 H   0  0  0  0  0  0  0  0  0  0  0  0
    2.3169  -52.3204   29.0195 H   0  0  0  0  0  0  0  0  0  0  0  0
   -0.1283  -52.5429   28.4009 H   0  0  0  0  0  0  0  0  0  0  0  0
  1  2  2  0  0  0  0
  2  3  1  0  0  0  0
  3  4  2  0  0  0  0
  3 27  1  0  0  0  0
  4  5  1  0  0  0  0
  5 19  1  0  0  0  0
  5  6  2  0  0  0  0
  6  7  1  0  0  0  0
  6  1  1  0  0  0  0
  8 28  1  0  0  0  0
  8 29  1  0  0  0  0
  8 30  1  0  0  0  0
  9  8  1  0  0  0  0
  9 10  1  0  0  0  0
  9 31  1  1  0  0  0
 10 11  1  0  0  0  0
 10 32  1  0  0  0  0
 10 33  1  0  0  0  0
 11 12  1  0  0  0  0
 11 13  1  0  0  0  0
 11 34  1  6  0  0  0
 12 35  1  0  0  0  0
 12 36  1  0  0  0  0
 12 37  1  0  0  0  0
 13 14  1  0  0  0  0
 13 38  1  0  0  0  0
 13 39  1  0  0  0  0
 14 15  1  0  0  0  0
 14 40  1  0  0  0  0
 14 41  1  0  0  0  0
 15 16  1  0  0  0  0
 15  9  1  0  0  0  0
 16 17  2  0  0  0  0
 16 18  1  0  0  0  0
 18  1  1  0  0  0  0
 18 42  1  0  0  0  0
 19 20  1  0  0  0  0
 20 21  2  0  0  0  0
 21 22  1  0  0  0  0
 21 43  1  0  0  0  0
 22 23  2  0  0  0  0
 22 44  1  0  0  0  0
 23 24  1  0  0  0  0
 23 45  1  0  0  0  0
 24 25  2  0  0  0  0
 24 46  1  0  0  0  0
 25 26  1  0  0  0  0
 25 20  1  0  0  0  0
M  CHG  1  11   1
M  END
>  <minimizedAffinity>
-8.01903

$$$$

 OpenBabel09092411003D

 48 50  0  0  0  0  0  0  0  0999 V2000
    1.6690  -52.3653   20.1573 C   0  0  0  0  0  0  0  0  0  0  0  0
    1.6845  -53.6198   20.9794 C   0  0  0  0  0  0  0  0  0  0  0  0
    1.0323  -53.6395   22.3300 C   0  0  0  0  0  0  0  0  0  0  0  0
    0.3646  -52.4047   22.8585 C   0  0  0  0  0  0  0  0  0  0  0  0
    0.3491  -51.1502   22.0363 C   0  0  0  0  0  0  0  0  0  0  0  0
   -0.3187  -49.9153   22.5648 Cl  0  0  0  0  0  0  0  0  0  0  0  0
    1.0013  -51.1305   20.6857 C   0  0  0  0  0  0  0  0  0  0  0  0
    0.0870  -50.7252   15.2524 C   0  0  0  0  0  0  0  0  0  0  0  0
    1.4840  -51.2458   15.0865 C   0  0  1  0  0  0  0  0  0  0  0  0
    2.1363  -51.2262   13.7359 C   0  0  0  0  0  0  0  0  0  0  0  0
    3.5332  -51.7467   13.5700 N   0  3  1  0  0  0  0  0  0  0  0  0
    4.1855  -51.7271   12.2193 C   0  0  0  0  0  0  0  0  0  0  0  0
    4.2780  -52.2868   14.7547 C   0  0  0  0  0  0  0  0  0  0  0  0
    3.6257  -52.3064   16.1053 C   0  0  0  0  0  0  0  0  0  0  0  0
    2.2287  -51.7859   16.2712 N   0  0  0  0  0  0  0  0  0  0  0  0
    1.5765  -51.8055   17.6219 C   0  0  0  0  0  0  0  0  0  0  0  0
    0.1795  -51.2850   17.7877 O   0  0  0  0  0  0  0  0  0  0  0  0
    2.3212  -52.3457   18.8066 N   0  0  0  0  0  0  0  0  0  0  0  0
   -0.2876  -52.4243   24.2092 O   0  0  0  0  0  0  0  0  0  0  0  0
    0.5321  -52.1802   25.4415 C   0  0  0  0  0  0  0  0  0  0  0  0
    1.8992  -51.5740   25.3249 C   0  0  0  0  0  0  0  0  0  0  0  0
    2.7189  -51.3298   26.5572 C   0  0  0  0  0  0  0  0  0  0  0  0
    2.1714  -51.6919   27.9060 C   0  0  0  0  0  0  0  0  0  0  0  0
    0.8044  -52.2981   28.0225 C   0  0  0  0  0  0  0  0  0  0  0  0
   -0.0153  -52.5422   26.7902 C   0  0  0  0  0  0  0  0  0  0  0  0
   -1.3824  -53.1484   26.9067 F   0  0  0  0  0  0  0  0  0  0  0  0
    2.1439  -54.4694   20.6158 H   0  0  0  0  0  0  0  0  0  0  0  0
    1.0430  -54.5026   22.8956 H   0  0  0  0  0  0  0  0  0  0  0  0
    0.9906  -50.2674   20.1200 H   0  0  0  0  0  0  0  0  0  0  0  0
   -0.2811  -50.3841   14.3074 H   0  0  0  0  0  0  0  0  0  0  0  0
    0.0895  -49.9126   15.9486 H   0  0  0  0  0  0  0  0  0  0  0  0
   -0.5439  -51.5075   15.6196 H   0  0  0  0  0  0  0  0  0  0  0  0
    0.6938  -51.8071   14.6333 H   0  0  0  0  0  0  0  0  0  0  0  0
    2.1463  -50.2063   13.4125 H   0  0  0  0  0  0  0  0  0  0  0  0
    1.5477  -51.9165   13.1685 H   0  0  0  0  0  0  0  0  0  0  0  0
    2.5320  -51.9396   13.5417 H   0  0  0  0  0  0  0  0  0  0  0  0
    5.2293  -51.5197   12.3303 H   0  0  0  0  0  0  0  0  0  0  0  0
    3.7333  -50.9681   11.6158 H   0  0  0  0  0  0  0  0  0  0  0  0
    4.0592  -52.6796   11.7484 H   0  0  0  0  0  0  0  0  0  0  0  0
    5.1700  -51.7037   14.8509 H   0  0  0  0  0  0  0  0  0  0  0  0
    4.3918  -53.3248   14.5214 H   0  0  0  0  0  0  0  0  0  0  0  0
    4.2491  -51.7314   16.7577 H   0  0  0  0  0  0  0  0  0  0  0  0
    3.5255  -53.3509   16.3148 H   0  0  0  0  0  0  0  0  0  0  0  0
    3.2381  -52.6874   18.6977 H   0  0  0  0  0  0  0  0  0  0  0  0
    2.2758  -51.3250   24.3969 H   0  0  0  0  0  0  0  0  0  0  0  0
    3.6594  -50.9127   26.4771 H   0  0  0  0  0  0  0  0  0  0  0  0
    2.7353  -51.5239   28.7538 H   0  0  0  0  0  0  0  0  0  0  0  0
    0.4278  -52.5473   28.9505 H   0  0  0  0  0  0  0  0  0  0  0  0
  1  2  2  0  0  0  0
  2  3  1  0  0  0  0
  2 27  1  0  0  0  0
  3  4  2  0  0  0  0
  3 28  1  0  0  0  0
  4 19  1  0  0  0  0
  4  5  1  0  0  0  0
  5  6  1  0  0  0  0
  5  7  2  0  0  0  0
  7  1  1  0  0  0  0
  7 29  1  0  0  0  0
  8 30  1  0  0  0  0
  8 31  1  0  0  0  0
  8 32  1  0  0  0  0
  9  8  1  0  0  0  0
  9 10  1  0  0  0  0
  9 33  1  6  0  0  0
 10 11  1  0  0  0  0
 10 34  1  0  0  0  0
 10 35  1  0  0  0  0
 11 12  1  0  0  0  0
 11 13  1  0  0  0  0
 11 36  1  6  0  0  0
 12 37  1  0  0  0  0
 12 38  1  0  0  0  0
 12 39  1  0  0  0  0
 13 14  1  0  0  0  0
 13 40  1  0  0  0  0
 13 41  1  0  0  0  0
 14 15  1  0  0  0  0
 14 42  1  0  0  0  0
 14 43  1  0  0  0  0
 15 16  1  0  0  0  0
 15  9  1  0  0  0  0
 16 17  2  0  0  0  0
 16 18  1  0  0  0  0
 18  1  1  0  0  0  0
 18 44  1  0  0  0  0
 19 20  1  0  0  0  0
 20 21  2  0  0  0  0
 21 22  1  0  0  0  0
 21 45  1  0  0  0  0
 22 23  2  0  0  0  0
 22 46  1  0  0  0  0
 23 24  1  0  0  0  0
 23 47  1  0  0  0  0
 24 25  2  0  0  0  0
 24 48  1  0  0  0  0
 25 26  1  0  0  0  0
 25 20  1  0  0  0  0
M  CHG  1  11   1
M  END
>  <minimizedAffinity>
-8.43688

$$$$

 OpenBabel09092411003D

 54 56  0  0  0  0  0  0  0  0999 V2000
    0.7305  -52.3868   22.0368 C   0  0  0  0  0  0  0  0  0  0  0  0
    0.5768  -53.3877   20.9301 C   0  0  0  0  0  0  0  0  0  0  0  0
    0.4922  -52.9242   19.5060 C   0  0  0  0  0  0  0  0  0  0  0  0
    0.5613  -51.4597   19.1887 C   0  0  0  0  0  0  0  0  0  0  0  0
    0.7149  -50.4589   20.2953 C   0  0  0  0  0  0  0  0  0  0  0  0
    0.7995  -50.9225   21.7194 C   0  0  0  0  0  0  0  0  0  0  0  0
    0.4766  -50.9961   17.7646 C   0  0  0  0  0  0  0  0  0  0  0  0
   -0.6915  -50.1708   17.3127 O   0  0  0  0  0  0  0  0  0  0  0  0
    1.5602  -51.3580   16.7924 N   0  0  0  0  0  0  0  0  0  0  0  0
    2.7283  -52.1833   17.2444 C   0  0  0  0  0  0  0  0  0  0  0  0
    3.8118  -52.5451   16.2722 C   0  0  0  0  0  0  0  0  0  0  0  0
    3.7272  -52.0816   14.8482 N   0  3  2  0  0  0  0  0  0  0  0  0
    4.8108  -52.4434   13.8760 C   0  0  0  0  0  0  0  0  0  0  0  0
    2.5591  -51.2562   14.3962 C   0  0  0  0  0  0  0  0  0  0  0  0
    1.4756  -50.8944   15.3684 C   0  0  1  0  0  0  0  0  0  0  0  0
    0.3074  -50.0690   14.9165 C   0  0  0  0  0  0  0  0  0  0  0  0
    0.8151  -52.8504   23.4608 N   0  0  0  0  0  0  0  0  0  0  0  0
   -0.0260  -52.5344   25.8986 C   0  0  0  0  0  0  0  0  0  0  0  0
   -1.1309  -52.2100   26.8598 C   0  0  0  0  0  0  0  0  0  0  0  0
   -0.8671  -52.2184   28.3364 F   0  0  0  0  0  0  0  0  0  0  0  0
   -2.4997  -51.8772   26.3444 C   0  0  0  0  0  0  0  0  0  0  0  0
   -2.7636  -51.8688   24.8679 C   0  0  0  0  0  0  0  0  0  0  0  0
   -1.6587  -52.1932   23.9067 C   0  0  0  0  0  0  0  0  0  0  0  0
   -1.9225  -52.1848   22.4301 F   0  0  0  0  0  0  0  0  0  0  0  0
   -0.2899  -52.5260   24.4221 C   0  0  0  0  0  0  0  0  0  0  0  0
    1.3428  -52.8672   26.4140 O   0  0  0  0  0  0  0  0  0  0  0  0
    2.7585  -50.8172   25.6771 C   0  0  0  0  0  0  0  0  0  0  0  0
    2.3070  -51.7673   26.7464 C   0  0  0  0  0  0  0  0  0  0  0  0
    0.5293  -54.3952   21.1485 H   0  0  0  0  0  0  0  0  0  0  0  0
    0.3865  -53.6128   18.7446 H   0  0  0  0  0  0  0  0  0  0  0  0
    0.7624  -49.4514   20.0769 H   0  0  0  0  0  0  0  0  0  0  0  0
    0.9052  -50.2339   22.4808 H   0  0  0  0  0  0  0  0  0  0  0  0
    2.3301  -53.1029   17.6195 H   0  0  0  0  0  0  0  0  0  0  0  0
    3.2270  -51.5427   17.9414 H   0  0  0  0  0  0  0  0  0  0  0  0
    3.8598  -53.6137   16.2469 H   0  0  0  0  0  0  0  0  0  0  0  0
    4.6659  -52.0231   16.6504 H   0  0  0  0  0  0  0  0  0  0  0  0
    3.2778  -52.8201   15.3895 H   0  0  0  0  0  0  0  0  0  0  0  0
    5.1706  -51.5569   13.3968 H   0  0  0  0  0  0  0  0  0  0  0  0
    4.4197  -53.1135   13.1392 H   0  0  0  0  0  0  0  0  0  0  0  0
    5.6150  -52.9178   14.3986 H   0  0  0  0  0  0  0  0  0  0  0  0
    2.0912  -51.7940   13.5982 H   0  0  0  0  0  0  0  0  0  0  0  0
    3.0024  -50.3116   14.1592 H   0  0  0  0  0  0  0  0  0  0  0  0
    2.2698  -50.2731   15.7263 H   0  0  0  0  0  0  0  0  0  0  0  0
   -0.4703  -50.7142   14.5645 H   0  0  0  0  0  0  0  0  0  0  0  0
    0.6156  -49.4175   14.1256 H   0  0  0  0  0  0  0  0  0  0  0  0
   -0.0565  -49.4866   15.7370 H   0  0  0  0  0  0  0  0  0  0  0  0
    1.5958  -53.3676   23.7646 H   0  0  0  0  0  0  0  0  0  0  0  0
   -3.2599  -51.6540   27.0057 H   0  0  0  0  0  0  0  0  0  0  0  0
   -3.7053  -51.6398   24.5133 H   0  0  0  0  0  0  0  0  0  0  0  0
    3.4393  -50.1060   26.0962 H   0  0  0  0  0  0  0  0  0  0  0  0
    1.9102  -50.3044   25.2743 H   0  0  0  0  0  0  0  0  0  0  0  0
    3.2480  -51.3635   24.8981 H   0  0  0  0  0  0  0  0  0  0  0  0
    1.8492  -51.1760   27.5118 H   0  0  0  0  0  0  0  0  0  0  0  0
    3.2027  -52.2941   27.0015 H   0  0  0  0  0  0  0  0  0  0  0  0
  1  2  2  0  0  0  0
  2  3  1  0  0  0  0
  2 29  1  0  0  0  0
  3  4  2  0  0  0  0
  3 30  1  0  0  0  0
  4  7  1  0  0  0  0
  4  5  1  0  0  0  0
  5  6  2  0  0  0  0
  5 31  1  0  0  0  0
  6  1  1  0  0  0  0
  6 32  1  0  0  0  0
  7  8  2  0  0  0  0
  7  9  1  0  0  0  0
  9 10  1  0  0  0  0
 10 11  1  0  0  0  0
 10 33  1  0  0  0  0
 10 34  1  0  0  0  0
 11 12  1  0  0  0  0
 11 35  1  0  0  0  0
 11 36  1  0  0  0  0
 12 13  1  0  0  0  0
 12 14  1  0  0  0  0
 12 37  1  6  0  0  0
 13 38  1  0  0  0  0
 13 39  1  0  0  0  0
 13 40  1  0  0  0  0
 14 15  1  0  0  0  0
 14 41  1  0  0  0  0
 14 42  1  0  0  0  0
 15 16  1  0  0  0  0
 15  9  1  0  0  0  0
 15 43  1  1  0  0  0
 16 44  1  0  0  0  0
 16 45  1  0  0  0  0
 16 46  1  0  0  0  0
 17  1  1  0  0  0  0
 17 47  1  0  0  0  0
 18 19  2  0  0  0  0
 19 20  1  0  0  0  0
 19 21  1  0  0  0  0
 21 22  2  0  0  0  0
 21 48  1  0  0  0  0
 22 23  1  0  0  0  0
 22 49  1  0  0  0  0
 23 24  1  0  0  0  0
 23 25  2  0  0  0  0
 25 17  1  0  0  0  0
 25 18  1  0  0  0  0
 26 18  1  0  0  0  0
 27 28  1  0  0  0  0
 27 50  1  0  0  0  0
 27 51  1  0  0  0  0
 27 52  1  0  0  0  0
 28 26  1  0  0  0  0
 28 53  1  0  0  0  0
 28 54  1  0  0  0  0
M  CHG  1  12   1
M  END
>  <minimizedAffinity>
-8.14472

$$$$

 OpenBabel09092411003D

 48 50  0  0  0  0  0  0  0  0999 V2000
   -0.5066  -51.5855   26.7975 C   0  0  0  0  0  0  0  0  0  0  0  0
   -0.2492  -50.8098   25.5398 C   0  0  0  0  0  0  0  0  0  0  0  0
   -1.1896  -50.9320   24.3775 C   0  0  0  0  0  0  0  0  0  0  0  0
   -2.3873  -51.8299   24.4730 C   0  0  0  0  0  0  0  0  0  0  0  0
   -2.6447  -52.6056   25.7307 N   0  0  0  0  0  0  0  0  0  0  0  0
   -1.7043  -52.4834   26.8930 N   0  0  0  0  0  0  0  0  0  0  0  0
   -0.9321  -50.1562   23.1197 C   0  0  0  0  0  0  0  0  0  0  0  0
   -1.4598  -48.7592   22.9789 O   0  0  0  0  0  0  0  0  0  0  0  0
   -0.1470  -50.7775   22.0028 N   0  0  0  0  0  0  0  0  0  0  0  0
    0.3807  -52.1746   22.1436 C   0  0  0  0  0  0  0  0  0  0  0  0
    1.1658  -52.7959   21.0267 C   0  0  0  0  0  0  0  0  0  0  0  0
    1.4232  -52.0201   19.7689 N   0  3  2  0  0  0  0  0  0  0  0  0
    2.2083  -52.6414   18.6519 C   0  0  0  0  0  0  0  0  0  0  0  0
    0.8956  -50.6231   19.6281 C   0  0  0  0  0  0  0  0  0  0  0  0
    0.1104  -50.0018   20.7450 C   0  0  2  0  0  0  0  0  0  0  0  0
   -0.4172  -48.6047   20.6042 C   0  0  0  0  0  0  0  0  0  0  0  0
    1.8874  -51.7895   27.7859 C   0  0  0  0  0  0  0  0  0  0  0  0
    0.4337  -51.4633   27.9598 O   0  0  0  0  0  0  0  0  0  0  0  0
   -3.3276  -51.9521   23.3107 O   0  0  0  0  0  0  0  0  0  0  0  0
   -4.3373  -50.8748   23.0464 C   0  0  0  0  0  0  0  0  0  0  0  0
   -5.2213  -50.3868   24.1557 C   0  0  0  0  0  0  0  0  0  0  0  0
   -6.2310  -49.3095   23.8914 C   0  0  0  0  0  0  0  0  0  0  0  0
   -6.3568  -48.7202   22.5178 C   0  0  0  0  0  0  0  0  0  0  0  0
   -5.4729  -49.2081   21.4085 C   0  0  0  0  0  0  0  0  0  0  0  0
   -4.4631  -50.2854   21.6728 C   0  0  0  0  0  0  0  0  0  0  0  0
   -3.5792  -50.7734   20.5635 Cl  0  0  0  0  0  0  0  0  0  0  0  0
    0.5749  -50.1920   25.4741 H   0  0  0  0  0  0  0  0  0  0  0  0
   -0.4642  -52.8079   22.3168 H   0  0  0  0  0  0  0  0  0  0  0  0
    1.0999  -52.0876   22.9310 H   0  0  0  0  0  0  0  0  0  0  0  0
    0.6443  -53.6851   20.7399 H   0  0  0  0  0  0  0  0  0  0  0  0
    2.1425  -52.9127   21.4479 H   0  0  0  0  0  0  0  0  0  0  0  0
    0.5150  -52.1020   20.2260 H   0  0  0  0  0  0  0  0  0  0  0  0
    3.1633  -52.1644   18.5789 H   0  0  0  0  0  0  0  0  0  0  0  0
    1.6770  -52.5187   17.7313 H   0  0  0  0  0  0  0  0  0  0  0  0
    2.3446  -53.6843   18.8488 H   0  0  0  0  0  0  0  0  0  0  0  0
    0.2628  -50.6174   18.7653 H   0  0  0  0  0  0  0  0  0  0  0  0
    1.7837  -50.0274   19.5908 H   0  0  0  0  0  0  0  0  0  0  0  0
   -0.7955  -50.3684   20.3093 H   0  0  0  0  0  0  0  0  0  0  0  0
    0.3056  -47.9109   20.9800 H   0  0  0  0  0  0  0  0  0  0  0  0
   -1.3263  -48.5090   21.1604 H   0  0  0  0  0  0  0  0  0  0  0  0
   -0.6072  -48.3976   19.5718 H   0  0  0  0  0  0  0  0  0  0  0  0
    2.3988  -51.6455   28.7147 H   0  0  0  0  0  0  0  0  0  0  0  0
    2.3106  -51.1470   27.0423 H   0  0  0  0  0  0  0  0  0  0  0  0
    1.9897  -52.8087   27.4767 H   0  0  0  0  0  0  0  0  0  0  0  0
   -5.1348  -50.7923   25.1008 H   0  0  0  0  0  0  0  0  0  0  0  0
   -6.8391  -48.9738   24.6546 H   0  0  0  0  0  0  0  0  0  0  0  0
   -7.0515  -47.9790   22.3360 H   0  0  0  0  0  0  0  0  0  0  0  0
   -5.5595  -48.8026   20.4635 H   0  0  0  0  0  0  0  0  0  0  0  0
  1  2  2  0  0  0  0
  2  3  1  0  0  0  0
  2 27  1  0  0  0  0
  3  7  1  0  0  0  0
  3  4  2  0  0  0  0
  4 19  1  0  0  0  0
  4  5  1  0  0  0  0
  5  6  2  0  0  0  0
  6  1  1  0  0  0  0
  7  8  2  0  0  0  0
  7  9  1  0  0  0  0
  9 10  1  0  0  0  0
 10 11  1  0  0  0  0
 10 28  1  0  0  0  0
 10 29  1  0  0  0  0
 11 12  1  0  0  0  0
 11 30  1  0  0  0  0
 11 31  1  0  0  0  0
 12 13  1  0  0  0  0
 12 14  1  0  0  0  0
 12 32  1  6  0  0  0
 13 33  1  0  0  0  0
 13 34  1  0  0  0  0
 13 35  1  0  0  0  0
 14 15  1  0  0  0  0
 14 36  1  0  0  0  0
 14 37  1  0  0  0  0
 15 16  1  0  0  0  0
 15  9  1  0  0  0  0
 15 38  1  6  0  0  0
 16 39  1  0  0  0  0
 16 40  1  0  0  0  0
 16 41  1  0  0  0  0
 17 18  1  0  0  0  0
 17 42  1  0  0  0  0
 17 43  1  0  0  0  0
 17 44  1  0  0  0  0
 18  1  1  0  0  0  0
 19 20  1  0  0  0  0
 20 21  2  0  0  0  0
 21 22  1  0  0  0  0
 21 45  1  0  0  0  0
 22 23  2  0  0  0  0
 22 46  1  0  0  0  0
 23 24  1  0  0  0  0
 23 47  1  0  0  0  0
 24 25  2  0  0  0  0
 24 48  1  0  0  0  0
 25 26  1  0  0  0  0
 25 20  1  0  0  0  0
M  CHG  1  12   1
M  END
>  <minimizedAffinity>
-7.29130

$$$$

 OpenBabel09092411003D

 45 47  0  0  0  0  0  0  0  0999 V2000
    0.4871  -51.1142   18.7272 C   0  0  0  0  0  0  0  0  0  0  0  0
    0.4485  -49.9273   19.6437 C   0  0  0  0  0  0  0  0  0  0  0  0
    0.6098  -50.1164   21.1229 N   0  0  0  0  0  0  0  0  0  0  0  0
    0.8097  -51.4923   21.6858 C   0  0  0  0  0  0  0  0  0  0  0  0
    0.8483  -52.6792   20.7694 C   0  0  0  0  0  0  0  0  0  0  0  0
    1.0481  -54.0552   21.3322 Cl  0  0  0  0  0  0  0  0  0  0  0  0
    0.6870  -52.4901   19.2900 C   0  0  0  0  0  0  0  0  0  0  0  0
    0.0033  -50.5469   14.2894 C   0  0  0  0  0  0  0  0  0  0  0  0
    1.2827  -51.1043   14.8392 C   0  0  2  0  0  0  0  0  0  0  0  0
    2.4009  -51.4727   13.9097 C   0  0  0  0  0  0  0  0  0  0  0  0
    3.6803  -52.0302   14.4595 N   0  3  1  0  0  0  0  0  0  0  0  0
    4.7985  -52.3985   13.5299 C   0  0  0  0  0  0  0  0  0  0  0  0
    3.8416  -52.2193   15.9387 C   0  0  0  0  0  0  0  0  0  0  0  0
    2.7235  -51.8509   16.8682 C   0  0  0  0  0  0  0  0  0  0  0  0
    1.4440  -51.2934   16.3184 N   0  0  0  0  0  0  0  0  0  0  0  0
    0.3258  -50.9251   17.2480 C   0  0  0  0  0  0  0  0  0  0  0  0
   -0.9537  -50.3676   16.6982 O   0  0  0  0  0  0  0  0  0  0  0  0
    0.9709  -51.6814   23.1650 O   0  0  0  0  0  0  0  0  0  0  0  0
   -0.2254  -51.6009   24.0663 C   0  0  0  0  0  0  0  0  0  0  0  0
   -1.5533  -52.1184   23.5982 C   0  0  0  0  0  0  0  0  0  0  0  0
   -2.7496  -52.0379   24.4994 C   0  0  0  0  0  0  0  0  0  0  0  0
   -2.6181  -51.4399   25.8687 C   0  0  0  0  0  0  0  0  0  0  0  0
   -3.8145  -51.3593   26.7700 F   0  0  0  0  0  0  0  0  0  0  0  0
   -1.2903  -50.9224   26.3368 C   0  0  0  0  0  0  0  0  0  0  0  0
   -0.0940  -51.0029   25.4356 C   0  0  0  0  0  0  0  0  0  0  0  0
    1.2338  -50.4854   25.9037 F   0  0  0  0  0  0  0  0  0  0  0  0
    0.3110  -48.9806   19.2565 H   0  0  0  0  0  0  0  0  0  0  0  0
    0.7136  -53.3067   18.6595 H   0  0  0  0  0  0  0  0  0  0  0  0
    0.0707  -50.4840   13.2234 H   0  0  0  0  0  0  0  0  0  0  0  0
   -0.1636  -49.5707   14.6945 H   0  0  0  0  0  0  0  0  0  0  0  0
   -0.8098  -51.1884   14.5581 H   0  0  0  0  0  0  0  0  0  0  0  0
    0.8122  -50.2570   15.2926 H   0  0  0  0  0  0  0  0  0  0  0  0
    2.6576  -50.5860   13.3687 H   0  0  0  0  0  0  0  0  0  0  0  0
    1.9966  -52.2904   13.3504 H   0  0  0  0  0  0  0  0  0  0  0  0
    3.3681  -52.7307   15.1320 H   0  0  0  0  0  0  0  0  0  0  0  0
    5.0154  -51.5708   12.8874 H   0  0  0  0  0  0  0  0  0  0  0  0
    4.5080  -53.2420   12.9392 H   0  0  0  0  0  0  0  0  0  0  0  0
    5.6696  -52.6453   14.1000 H   0  0  0  0  0  0  0  0  0  0  0  0
    4.6917  -51.6401   16.2333 H   0  0  0  0  0  0  0  0  0  0  0  0
    3.9097  -53.2818   16.0448 H   0  0  0  0  0  0  0  0  0  0  0  0
    3.1131  -51.1199   17.5456 H   0  0  0  0  0  0  0  0  0  0  0  0
    2.4249  -52.7926   17.2792 H   0  0  0  0  0  0  0  0  0  0  0  0
   -1.6438  -52.5298   22.6561 H   0  0  0  0  0  0  0  0  0  0  0  0
   -3.6631  -52.3939   24.1774 H   0  0  0  0  0  0  0  0  0  0  0  0
   -1.1999  -50.5110   27.2789 H   0  0  0  0  0  0  0  0  0  0  0  0
  1  2  2  0  0  0  0
  2  3  1  0  0  0  0
  2 27  1  0  0  0  0
  3  4  2  0  0  0  0
  4 18  1  0  0  0  0
  4  5  1  0  0  0  0
  5  6  1  0  0  0  0
  5  7  2  0  0  0  0
  7  1  1  0  0  0  0
  7 28  1  0  0  0  0
  8 29  1  0  0  0  0
  8 30  1  0  0  0  0
  8 31  1  0  0  0  0
  9  8  1  0  0  0  0
  9 10  1  0  0  0  0
  9 32  1  1  0  0  0
 10 11  1  0  0  0  0
 10 33  1  0  0  0  0
 10 34  1  0  0  0  0
 11 12  1  0  0  0  0
 11 13  1  0  0  0  0
 11 35  1  6  0  0  0
 12 36  1  0  0  0  0
 12 37  1  0  0  0  0
 12 38  1  0  0  0  0
 13 14  1  0  0  0  0
 13 39  1  0  0  0  0
 13 40  1  0  0  0  0
 14 15  1  0  0  0  0
 14 41  1  0  0  0  0
 14 42  1  0  0  0  0
 15 16  1  0  0  0  0
 15  9  1  0  0  0  0
 16 17  2  0  0  0  0
 16  1  1  0  0  0  0
 18 19  1  0  0  0  0
 19 20  2  0  0  0  0
 20 21  1  0  0  0  0
 20 43  1  0  0  0  0
 21 22  2  0  0  0  0
 21 44  1  0  0  0  0
 22 23  1  0  0  0  0
 22 24  1  0  0  0  0
 24 25  2  0  0  0  0
 24 45  1  0  0  0  0
 25 26  1  0  0  0  0
 25 19  1  0  0  0  0
M  CHG  1  11   1
M  END
>  <minimizedAffinity>
-7.31821

$$$$

 OpenBabel09092411003D

 52 54  0  0  0  0  0  0  0  0999 V2000
   -0.1494  -51.7799   22.0034 C   0  0  0  0  0  0  0  0  0  0  0  0
    0.3831  -53.0709   21.4558 C   0  0  0  0  0  0  0  0  0  0  0  0
    1.0630  -53.0949   20.1190 C   0  0  0  0  0  0  0  0  0  0  0  0
    1.2105  -51.8279   19.3297 C   0  0  0  0  0  0  0  0  0  0  0  0
    0.6780  -50.5369   19.8772 C   0  0  0  0  0  0  0  0  0  0  0  0
   -0.0020  -50.5129   21.2141 C   0  0  0  0  0  0  0  0  0  0  0  0
   -0.5344  -49.2219   21.7616 Cl  0  0  0  0  0  0  0  0  0  0  0  0
    1.8904  -51.8518   17.9929 N   0  0  0  0  0  0  0  0  0  0  0  0
    1.1473  -51.4141   16.7655 C   0  0  0  0  0  0  0  0  0  0  0  0
   -0.2757  -50.9524   16.8751 O   0  0  0  0  0  0  0  0  0  0  0  0
    1.8272  -51.4381   15.4287 N   0  0  0  0  0  0  0  0  0  0  0  0
    1.0841  -51.0004   14.2015 C   0  0  0  0  0  0  0  0  0  0  0  0
    1.7640  -51.0243   12.8645 C   0  0  0  0  0  0  0  0  0  0  0  0
    3.1870  -51.4860   12.7550 N   0  3  1  0  0  0  0  0  0  0  0  0
    3.8669  -51.5100   11.4182 C   0  0  0  0  0  0  0  0  0  0  0  0
    3.9301  -51.9237   13.9824 C   0  0  0  0  0  0  0  0  0  0  0  0
    3.2502  -51.8998   15.3192 C   0  0  1  0  0  0  0  0  0  0  0  0
    3.9932  -52.3375   16.5464 C   0  0  0  0  0  0  0  0  0  0  0  0
   -0.8293  -51.7559   23.3402 O   0  0  0  0  0  0  0  0  0  0  0  0
   -0.6054  -52.1932   25.8914 C   0  0  0  0  0  0  0  0  0  0  0  0
    0.2125  -52.1593   27.1483 C   0  0  0  0  0  0  0  0  0  0  0  0
    1.6245  -51.6544   27.1109 C   0  0  0  0  0  0  0  0  0  0  0  0
    2.4424  -51.6205   28.3679 F   0  0  0  0  0  0  0  0  0  0  0  0
    2.2185  -51.1833   25.8167 C   0  0  0  0  0  0  0  0  0  0  0  0
    1.4006  -51.2171   24.5598 C   0  0  0  0  0  0  0  0  0  0  0  0
   -0.0114  -51.7221   24.5972 C   0  0  0  0  0  0  0  0  0  0  0  0
   -3.1236  -51.7982   26.3937 C   0  0  0  0  0  0  0  0  0  0  0  0
   -2.0174  -52.6981   25.9288 O   0  0  0  0  0  0  0  0  0  0  0  0
    0.2817  -53.9426   21.9988 H   0  0  0  0  0  0  0  0  0  0  0  0
    1.4293  -53.9831   19.7423 H   0  0  0  0  0  0  0  0  0  0  0  0
    0.7794  -49.6652   19.3342 H   0  0  0  0  0  0  0  0  0  0  0  0
    2.8244  -52.1548   17.9210 H   0  0  0  0  0  0  0  0  0  0  0  0
    0.7736  -49.9908   14.3721 H   0  0  0  0  0  0  0  0  0  0  0  0
    0.3178  -51.7404   14.1010 H   0  0  0  0  0  0  0  0  0  0  0  0
    1.7335  -50.0245   12.4845 H   0  0  0  0  0  0  0  0  0  0  0  0
    1.2206  -51.7720   12.3255 H   0  0  0  0  0  0  0  0  0  0  0  0
    3.2486  -52.2100   13.4708 H   0  0  0  0  0  0  0  0  0  0  0  0
    3.6220  -50.6198   10.8775 H   0  0  0  0  0  0  0  0  0  0  0  0
    3.5373  -52.3650   10.8657 H   0  0  0  0  0  0  0  0  0  0  0  0
    4.9265  -51.5624   11.5578 H   0  0  0  0  0  0  0  0  0  0  0  0
    4.7916  -51.2943   14.0628 H   0  0  0  0  0  0  0  0  0  0  0  0
    4.0971  -52.9664   13.8100 H   0  0  0  0  0  0  0  0  0  0  0  0
    3.1804  -52.7314   15.9889 H   0  0  0  0  0  0  0  0  0  0  0  0
    4.7619  -51.6276   16.7701 H   0  0  0  0  0  0  0  0  0  0  0  0
    4.4334  -53.2973   16.3735 H   0  0  0  0  0  0  0  0  0  0  0  0
    3.3143  -52.3999   17.3711 H   0  0  0  0  0  0  0  0  0  0  0  0
   -0.1962  -52.4833   28.0388 H   0  0  0  0  0  0  0  0  0  0  0  0
    3.1899  -50.8359   25.7910 H   0  0  0  0  0  0  0  0  0  0  0  0
    1.8093  -50.8929   23.6693 H   0  0  0  0  0  0  0  0  0  0  0  0
   -4.0536  -52.3258   26.3528 H   0  0  0  0  0  0  0  0  0  0  0  0
   -3.1735  -50.9376   25.7598 H   0  0  0  0  0  0  0  0  0  0  0  0
   -2.9328  -51.4892   27.4002 H   0  0  0  0  0  0  0  0  0  0  0  0
  1  2  2  0  0  0  0
  2  3  1  0  0  0  0
  2 29  1  0  0  0  0
  3  4  2  0  0  0  0
  3 30  1  0  0  0  0
  4  8  1  0  0  0  0
  4  5  1  0  0  0  0
  5  6  2  0  0  0  0
  5 31  1  0  0  0  0
  6  7  1  0  0  0  0
  6  1  1  0  0  0  0
  8  9  1  0  0  0  0
  8 32  1  0  0  0  0
  9 10  2  0  0  0  0
  9 11  1  0  0  0  0
 11 12  1  0  0  0  0
 12 13  1  0  0  0  0
 12 33  1  0  0  0  0
 12 34  1  0  0  0  0
 13 14  1  0  0  0  0
 13 35  1  0  0  0  0
 13 36  1  0  0  0  0
 14 15  1  0  0  0  0
 14 16  1  0  0  0  0
 14 37  1  6  0  0  0
 15 38  1  0  0  0  0
 15 39  1  0  0  0  0
 15 40  1  0  0  0  0
 16 17  1  0  0  0  0
 16 41  1  0  0  0  0
 16 42  1  0  0  0  0
 17 18  1  0  0  0  0
 17 11  1  0  0  0  0
 17 43  1  6  0  0  0
 18 44  1  0  0  0  0
 18 45  1  0  0  0  0
 18 46  1  0  0  0  0
 19  1  1  0  0  0  0
 20 21  2  0  0  0  0
 21 22  1  0  0  0  0
 21 47  1  0  0  0  0
 22 23  1  0  0  0  0
 22 24  2  0  0  0  0
 24 25  1  0  0  0  0
 24 48  1  0  0  0  0
 25 26  2  0  0  0  0
 25 49  1  0  0  0  0
 26 19  1  0  0  0  0
 26 20  1  0  0  0  0
 27 28  1  0  0  0  0
 27 50  1  0  0  0  0
 27 51  1  0  0  0  0
 27 52  1  0  0  0  0
 28 20  1  0  0  0  0
M  CHG  1  14   1
M  END
>  <minimizedAffinity>
-7.99647

$$$$

 OpenBabel09092411003D

 45 47  0  0  0  0  0  0  0  0999 V2000
    0.3995  -52.1956   25.6357 C   0  0  0  0  0  0  0  0  0  0  0  0
    0.8145  -53.5104   26.2265 N   0  0  0  0  0  0  0  0  0  0  0  0
   -0.0344  -54.1614   27.2780 C   0  0  0  0  0  0  0  0  0  0  0  0
   -1.2982  -53.4976   27.7386 N   0  0  0  0  0  0  0  0  0  0  0  0
   -1.7131  -52.1828   27.1478 C   0  0  0  0  0  0  0  0  0  0  0  0
   -0.8643  -51.5318   26.0963 C   0  0  0  0  0  0  0  0  0  0  0  0
   -1.2792  -50.2170   25.5055 C   0  0  0  0  0  0  0  0  0  0  0  0
   -2.5430  -49.5532   25.9661 N   0  3  1  0  0  0  0  0  0  0  0  0
   -3.3918  -50.2042   27.0177 C   0  0  0  0  0  0  0  0  0  0  0  0
   -2.9769  -51.5190   27.6085 C   0  0  0  0  0  0  0  0  0  0  0  0
   -2.9579  -48.2384   25.3753 C   0  0  0  0  0  0  0  0  0  0  0  0
   -2.0255  -47.0646   25.4284 C   0  0  0  0  0  0  0  0  0  0  0  0
   -4.3054  -48.0973   24.7313 C   0  0  0  0  0  0  0  0  0  0  0  0
    1.2484  -51.5446   24.5841 N   0  0  0  0  0  0  0  0  0  0  0  0
    0.0499  -51.7923   20.2537 C   0  0  0  0  0  0  0  0  0  0  0  0
   -0.1123  -50.5038   21.0043 C   0  0  0  0  0  0  0  0  0  0  0  0
    0.2871  -50.4212   22.4478 C   0  0  0  0  0  0  0  0  0  0  0  0
    0.8489  -51.6272   23.1407 C   0  0  0  0  0  0  0  0  0  0  0  0
    1.0111  -52.9158   22.3901 C   0  0  0  0  0  0  0  0  0  0  0  0
    1.5728  -54.1217   23.0830 F   0  0  0  0  0  0  0  0  0  0  0  0
    0.6116  -52.9983   20.9466 C   0  0  0  0  0  0  0  0  0  0  0  0
    0.7738  -54.2868   20.1961 F   0  0  0  0  0  0  0  0  0  0  0  0
    0.6536  -51.5755   17.7361 C   0  0  0  0  0  0  0  0  0  0  0  0
   -0.3496  -51.8749   18.8103 O   0  0  0  0  0  0  0  0  0  0  0  0
    0.2511  -55.0660   27.6845 H   0  0  0  0  0  0  0  0  0  0  0  0
   -1.3770  -50.3693   24.4509 H   0  0  0  0  0  0  0  0  0  0  0  0
   -0.5142  -49.5462   25.8368 H   0  0  0  0  0  0  0  0  0  0  0  0
   -3.1562  -49.7950   25.1877 H   0  0  0  0  0  0  0  0  0  0  0  0
   -4.3597  -50.3513   26.5860 H   0  0  0  0  0  0  0  0  0  0  0  0
   -3.3195  -49.5292   27.8448 H   0  0  0  0  0  0  0  0  0  0  0  0
   -3.7739  -52.2076   27.4200 H   0  0  0  0  0  0  0  0  0  0  0  0
   -2.7686  -51.2752   28.6293 H   0  0  0  0  0  0  0  0  0  0  0  0
   -2.1628  -48.8791   25.6950 H   0  0  0  0  0  0  0  0  0  0  0  0
   -2.5510  -46.1783   25.1398 H   0  0  0  0  0  0  0  0  0  0  0  0
   -1.2074  -47.2283   24.7584 H   0  0  0  0  0  0  0  0  0  0  0  0
   -1.6530  -46.9498   26.4249 H   0  0  0  0  0  0  0  0  0  0  0  0
   -4.5829  -47.0642   24.7074 H   0  0  0  0  0  0  0  0  0  0  0  0
   -5.0294  -48.6481   25.2947 H   0  0  0  0  0  0  0  0  0  0  0  0
   -4.2651  -48.4790   23.7325 H   0  0  0  0  0  0  0  0  0  0  0  0
    2.0677  -51.0632   24.8413 H   0  0  0  0  0  0  0  0  0  0  0  0
   -0.4987  -49.6741   20.5276 H   0  0  0  0  0  0  0  0  0  0  0  0
    0.1754  -49.5347   22.9642 H   0  0  0  0  0  0  0  0  0  0  0  0
    0.1923  -51.6847   16.7768 H   0  0  0  0  0  0  0  0  0  0  0  0
    1.4756  -52.2558   17.8161 H   0  0  0  0  0  0  0  0  0  0  0  0
    1.0085  -50.5724   17.8491 H   0  0  0  0  0  0  0  0  0  0  0  0
  1  2  2  0  0  0  0
  2  3  1  0  0  0  0
  3  4  2  0  0  0  0
  3 25  1  0  0  0  0
  4  5  1  0  0  0  0
  5  6  2  0  0  0  0
  6  7  1  0  0  0  0
  6  1  1  0  0  0  0
  7  8  1  0  0  0  0
  7 26  1  0  0  0  0
  7 27  1  0  0  0  0
  8 11  1  0  0  0  0
  8  9  1  0  0  0  0
  8 28  1  6  0  0  0
  9 10  1  0  0  0  0
  9 29  1  0  0  0  0
  9 30  1  0  0  0  0
 10  5  1  0  0  0  0
 10 31  1  0  0  0  0
 10 32  1  0  0  0  0
 11 12  1  0  0  0  0
 11 13  1  0  0  0  0
 11 33  1  0  0  0  0
 12 34  1  0  0  0  0
 12 35  1  0  0  0  0
 12 36  1  0  0  0  0
 13 37  1  0  0  0  0
 13 38  1  0  0  0  0
 13 39  1  0  0  0  0
 14  1  1  0  0  0  0
 14 40  1  0  0  0  0
 15 16  2  0  0  0  0
 16 17  1  0  0  0  0
 16 41  1  0  0  0  0
 17 18  2  0  0  0  0
 17 42  1  0  0  0  0
 18 14  1  0  0  0  0
 18 19  1  0  0  0  0
 19 20  1  0  0  0  0
 19 21  2  0  0  0  0
 21 22  1  0  0  0  0
 21 15  1  0  0  0  0
 23 24  1  0  0  0  0
 23 43  1  0  0  0  0
 23 44  1  0  0  0  0
 23 45  1  0  0  0  0
 24 15  1  0  0  0  0
M  CHG  1   8   1
M  END
>  <minimizedAffinity>
-7.57967

$$$$

 OpenBabel09092411003D

 45 47  0  0  0  0  0  0  0  0999 V2000
   -0.6492  -51.8739   25.5427 C   0  0  0  0  0  0  0  0  0  0  0  0
    0.2468  -51.4266   24.4259 C   0  0  0  0  0  0  0  0  0  0  0  0
    1.7257  -51.3141   24.6501 Cl  0  0  0  0  0  0  0  0  0  0  0  0
   -0.3361  -51.0918   23.0850 C   0  0  0  0  0  0  0  0  0  0  0  0
   -1.8150  -51.2043   22.8608 C   0  0  0  0  0  0  0  0  0  0  0  0
   -2.3979  -50.8695   21.5199 C   0  0  0  0  0  0  0  0  0  0  0  0
   -3.8767  -50.9820   21.2957 N   0  0  0  0  0  0  0  0  0  0  0  0
   -4.7727  -51.4293   22.4124 C   0  0  0  0  0  0  0  0  0  0  0  0
   -4.1898  -51.7641   23.7533 N   0  0  0  0  0  0  0  0  0  0  0  0
   -2.7109  -51.6516   23.9776 C   0  0  0  0  0  0  0  0  0  0  0  0
   -2.1280  -51.9864   25.3185 C   0  0  0  0  0  0  0  0  0  0  0  0
    0.1663  -53.6410   27.2639 C   0  0  0  0  0  0  0  0  0  0  0  0
   -0.0663  -52.2087   26.8837 O   0  0  0  0  0  0  0  0  0  0  0  0
   -1.5019  -50.4222   20.4031 N   0  0  0  0  0  0  0  0  0  0  0  0
   -1.2753  -51.3156   19.2196 C   0  0  0  0  0  0  0  0  0  0  0  0
    0.0992  -51.8408   18.9286 C   0  0  2  0  0  0  0  0  0  0  0  0
    0.9927  -52.5572   19.8974 C   0  0  0  0  0  0  0  0  0  0  0  0
    2.2673  -52.9011   19.1852 C   0  0  0  0  0  0  0  0  0  0  0  0
    2.1615  -52.3971   17.7763 N   0  3  2  0  0  0  0  0  0  0  0  0
    3.2114  -52.5258   16.7128 C   0  0  0  0  0  0  0  0  0  0  0  0
    0.8216  -51.7418   17.6178 C   0  0  0  0  0  0  0  0  0  0  0  0
   -3.0240  -52.4337   26.4352 O   0  0  0  0  0  0  0  0  0  0  0  0
   -3.3423  -51.4968   27.5625 C   0  0  0  0  0  0  0  0  0  0  0  0
    0.2803  -50.7840   22.3167 H   0  0  0  0  0  0  0  0  0  0  0  0
   -5.7902  -51.5067   22.2581 H   0  0  0  0  0  0  0  0  0  0  0  0
    0.5839  -53.6855   28.2480 H   0  0  0  0  0  0  0  0  0  0  0  0
    0.8445  -54.0891   26.5681 H   0  0  0  0  0  0  0  0  0  0  0  0
   -0.7636  -54.1701   27.2468 H   0  0  0  0  0  0  0  0  0  0  0  0
   -1.0625  -49.5423   20.4469 H   0  0  0  0  0  0  0  0  0  0  0  0
   -1.5860  -50.7674   18.3548 H   0  0  0  0  0  0  0  0  0  0  0  0
   -1.8281  -52.1975   19.4678 H   0  0  0  0  0  0  0  0  0  0  0  0
   -0.8814  -51.4664   19.1361 H   0  0  0  0  0  0  0  0  0  0  0  0
    0.5149  -53.4516   20.2389 H   0  0  0  0  0  0  0  0  0  0  0  0
    1.1962  -51.9361   20.7446 H   0  0  0  0  0  0  0  0  0  0  0  0
    2.4065  -53.9620   19.1819 H   0  0  0  0  0  0  0  0  0  0  0  0
    3.1025  -52.4505   19.6795 H   0  0  0  0  0  0  0  0  0  0  0  0
    2.8751  -52.4848   17.0527 H   0  0  0  0  0  0  0  0  0  0  0  0
    4.1640  -52.2540   17.1173 H   0  0  0  0  0  0  0  0  0  0  0  0
    2.9728  -51.8775   15.8957 H   0  0  0  0  0  0  0  0  0  0  0  0
    3.2464  -53.5377   16.3667 H   0  0  0  0  0  0  0  0  0  0  0  0
    0.2609  -52.2414   16.8556 H   0  0  0  0  0  0  0  0  0  0  0  0
    0.9403  -50.7166   17.3353 H   0  0  0  0  0  0  0  0  0  0  0  0
   -3.9902  -51.9852   28.2600 H   0  0  0  0  0  0  0  0  0  0  0  0
   -3.8271  -50.6249   27.1756 H   0  0  0  0  0  0  0  0  0  0  0  0
   -2.4367  -51.2119   28.0560 H   0  0  0  0  0  0  0  0  0  0  0  0
  1  2  2  0  0  0  0
  2  3  1  0  0  0  0
  2  4  1  0  0  0  0
  4  5  2  0  0  0  0
  4 24  1  0  0  0  0
  5  6  1  0  0  0  0
  6 14  1  0  0  0  0
  6  7  2  0  0  0  0
  7  8  1  0  0  0  0
  8  9  2  0  0  0  0
  8 25  1  0  0  0  0
  9 10  1  0  0  0  0
 10 11  2  0  0  0  0
 10  5  1  0  0  0  0
 11 22  1  0  0  0  0
 11  1  1  0  0  0  0
 12 13  1  0  0  0  0
 12 26  1  0  0  0  0
 12 27  1  0  0  0  0
 12 28  1  0  0  0  0
 13  1  1  0  0  0  0
 14 15  1  0  0  0  0
 14 29  1  0  0  0  0
 15 30  1  0  0  0  0
 15 31  1  0  0  0  0
 16 15  1  0  0  0  0
 16 17  1  0  0  0  0
 16 32  1  6  0  0  0
 17 18  1  0  0  0  0
 17 33  1  0  0  0  0
 17 34  1  0  0  0  0
 18 19  1  0  0  0  0
 18 35  1  0  0  0  0
 18 36  1  0  0  0  0
 19 20  1  0  0  0  0
 19 21  1  0  0  0  0
 19 37  1  6  0  0  0
 20 38  1  0  0  0  0
 20 39  1  0  0  0  0
 20 40  1  0  0  0  0
 21 16  1  0  0  0  0
 21 41  1  0  0  0  0
 21 42  1  0  0  0  0
 22 23  1  0  0  0  0
 23 43  1  0  0  0  0
 23 44  1  0  0  0  0
 23 45  1  0  0  0  0
M  CHG  1  19   1
M  END
>  <minimizedAffinity>
-6.75300

$$$$

 OpenBabel09092411003D

 47 49  0  0  0  0  0  0  0  0999 V2000
    0.5717  -51.6071   21.7748 C   0  0  0  0  0  0  0  0  0  0  0  0
    0.8943  -52.9661   22.3215 N   0  0  0  0  0  0  0  0  0  0  0  0
    1.4902  -54.0124   21.4268 C   0  0  0  0  0  0  0  0  0  0  0  0
    1.7635  -53.6995   19.9856 N   0  0  0  0  0  0  0  0  0  0  0  0
    1.4409  -52.3404   19.4389 C   0  0  0  0  0  0  0  0  0  0  0  0
    0.8450  -51.2942   20.3334 C   0  0  0  0  0  0  0  0  0  0  0  0
    0.5224  -49.9352   19.7867 C   0  0  0  0  0  0  0  0  0  0  0  0
    1.7143  -52.0275   17.9976 N   0  0  0  0  0  0  0  0  0  0  0  0
    0.6754  -51.3282   17.1718 C   0  0  0  0  0  0  0  0  0  0  0  0
    0.9487  -51.0154   15.7305 C   0  0  0  0  0  0  0  0  0  0  0  0
    2.2609  -51.4018   15.1149 C   0  0  0  0  0  0  0  0  0  0  0  0
    3.2997  -52.1010   15.9406 C   0  0  2  0  0  0  0  0  0  0  0  0
    4.6118  -52.4874   15.3250 C   0  0  0  0  0  0  0  0  0  0  0  0
    3.0264  -52.4139   17.3820 C   0  0  0  0  0  0  0  0  0  0  0  0
   -0.0243  -50.5609   22.6694 N   0  0  0  0  0  0  0  0  0  0  0  0
   -0.7780  -51.4070   26.4728 C   0  0  0  0  0  0  0  0  0  0  0  0
   -2.2291  -51.7793   26.3982 C   0  0  0  0  0  0  0  0  0  0  0  0
   -2.9642  -52.1855   27.6411 F   0  0  0  0  0  0  0  0  0  0  0  0
   -2.9453  -51.7455   25.0806 C   0  0  0  0  0  0  0  0  0  0  0  0
   -2.2104  -51.3393   23.8377 C   0  0  0  0  0  0  0  0  0  0  0  0
   -0.7593  -50.9671   23.9124 C   0  0  0  0  0  0  0  0  0  0  0  0
   -0.0431  -51.0009   25.2299 C   0  0  0  0  0  0  0  0  0  0  0  0
    1.4081  -50.6286   25.3045 F   0  0  0  0  0  0  0  0  0  0  0  0
    1.0013  -52.4692   28.0399 C   0  0  0  0  0  0  0  0  0  0  0  0
   -0.0618  -51.4409   27.7904 O   0  0  0  0  0  0  0  0  0  0  0  0
    1.7121  -54.9475   21.8029 H   0  0  0  0  0  0  0  0  0  0  0  0
    0.7832  -49.8968   18.7497 H   0  0  0  0  0  0  0  0  0  0  0  0
    1.0785  -49.1942   20.3220 H   0  0  0  0  0  0  0  0  0  0  0  0
   -0.5246  -49.7451   19.8984 H   0  0  0  0  0  0  0  0  0  0  0  0
    0.4711  -50.3965   17.6567 H   0  0  0  0  0  0  0  0  0  0  0  0
   -0.1204  -52.0417   17.1220 H   0  0  0  0  0  0  0  0  0  0  0  0
    0.8569  -49.9549   15.6218 H   0  0  0  0  0  0  0  0  0  0  0  0
    0.2425  -51.6264   15.2081 H   0  0  0  0  0  0  0  0  0  0  0  0
    2.7095  -50.5004   14.7527 H   0  0  0  0  0  0  0  0  0  0  0  0
    1.9850  -52.1395   14.3906 H   0  0  0  0  0  0  0  0  0  0  0  0
    3.3501  -51.1826   16.4873 H   0  0  0  0  0  0  0  0  0  0  0  0
    4.4989  -53.4095   14.7941 H   0  0  0  0  0  0  0  0  0  0  0  0
    5.3456  -52.6065   16.0946 H   0  0  0  0  0  0  0  0  0  0  0  0
    4.9269  -51.7219   14.6471 H   0  0  0  0  0  0  0  0  0  0  0  0
    3.7903  -51.9294   17.9535 H   0  0  0  0  0  0  0  0  0  0  0  0
    3.0015  -53.4834   17.4011 H   0  0  0  0  0  0  0  0  0  0  0  0
    0.0669  -49.6077   22.4408 H   0  0  0  0  0  0  0  0  0  0  0  0
   -3.9437  -52.0017   25.0293 H   0  0  0  0  0  0  0  0  0  0  0  0
   -2.7031  -51.3159   22.9312 H   0  0  0  0  0  0  0  0  0  0  0  0
    1.3975  -52.3407   29.0255 H   0  0  0  0  0  0  0  0  0  0  0  0
    1.7861  -52.3523   27.3220 H   0  0  0  0  0  0  0  0  0  0  0  0
    0.5787  -53.4481   27.9501 H   0  0  0  0  0  0  0  0  0  0  0  0
  1  2  2  0  0  0  0
  2  3  1  0  0  0  0
  3  4  2  0  0  0  0
  3 26  1  0  0  0  0
  4  5  1  0  0  0  0
  5  8  1  0  0  0  0
  5  6  2  0  0  0  0
  6  7  1  0  0  0  0
  6  1  1  0  0  0  0
  7 27  1  0  0  0  0
  7 28  1  0  0  0  0
  7 29  1  0  0  0  0
  8  9  1  0  0  0  0
  9 10  1  0  0  0  0
  9 30  1  0  0  0  0
  9 31  1  0  0  0  0
 10 11  1  0  0  0  0
 10 32  1  0  0  0  0
 10 33  1  0  0  0  0
 11 12  1  0  0  0  0
 11 34  1  0  0  0  0
 11 35  1  0  0  0  0
 12 13  1  0  0  0  0
 12 14  1  0  0  0  0
 12 36  1  1  0  0  0
 13 37  1  0  0  0  0
 13 38  1  0  0  0  0
 13 39  1  0  0  0  0
 14  8  1  0  0  0  0
 14 40  1  0  0  0  0
 14 41  1  0  0  0  0
 15  1  1  0  0  0  0
 15 42  1  0  0  0  0
 16 17  2  0  0  0  0
 17 18  1  0  0  0  0
 17 19  1  0  0  0  0
 19 20  2  0  0  0  0
 19 43  1  0  0  0  0
 20 21  1  0  0  0  0
 20 44  1  0  0  0  0
 21 15  1  0  0  0  0
 21 22  2  0  0  0  0
 22 23  1  0  0  0  0
 22 16  1  0  0  0  0
 24 25  1  0  0  0  0
 24 45  1  0  0  0  0
 24 46  1  0  0  0  0
 24 47  1  0  0  0  0
 25 16  1  0  0  0  0
M  END
>  <minimizedAffinity>
-8.22520

$$$$

 OpenBabel09092411003D

 44 46  0  0  0  0  0  0  0  0999 V2000
    1.2150  -51.5115   18.0325 N   0  0  0  0  0  0  0  0  0  0  0  0
    0.5955  -50.1696   17.7766 C   0  0  0  0  0  0  0  0  0  0  0  0
   -0.0466  -49.4131   18.9016 C   0  0  2  0  0  0  0  0  0  0  0  0
   -0.6661  -48.0713   18.6458 C   0  0  0  0  0  0  0  0  0  0  0  0
   -0.0691  -49.9986   20.2825 C   0  0  0  0  0  0  0  0  0  0  0  0
    0.5504  -51.3406   20.5383 C   0  0  0  0  0  0  0  0  0  0  0  0
    0.5279  -51.9261   21.9191 C   0  0  0  0  0  0  0  0  0  0  0  0
    1.1474  -53.2679   22.1750 N   0  0  0  0  0  0  0  0  0  0  0  0
    1.7895  -54.0243   21.0500 C   0  0  0  0  0  0  0  0  0  0  0  0
    1.8120  -53.4389   19.6692 N   0  0  0  0  0  0  0  0  0  0  0  0
    1.1925  -52.0970   19.4133 C   0  0  0  0  0  0  0  0  0  0  0  0
    3.3513  -52.2957   16.7790 C   0  0  0  0  0  0  0  0  0  0  0  0
    1.8570  -52.2679   16.9075 C   0  0  0  0  0  0  0  0  0  0  0  0
   -0.1142  -51.1696   23.0441 N   0  0  0  0  0  0  0  0  0  0  0  0
    0.2935  -51.4440   24.4613 C   0  0  0  0  0  0  0  0  0  0  0  0
    1.6520  -51.0304   24.9444 C   0  0  0  0  0  0  0  0  0  0  0  0
    2.0597  -51.3048   26.3616 C   0  0  0  0  0  0  0  0  0  0  0  0
    1.1090  -51.9928   27.2957 C   0  0  0  0  0  0  0  0  0  0  0  0
    1.5167  -52.2672   28.7130 Cl  0  0  0  0  0  0  0  0  0  0  0  0
   -0.2496  -52.4064   26.8127 C   0  0  0  0  0  0  0  0  0  0  0  0
   -1.2004  -53.0944   27.7468 F   0  0  0  0  0  0  0  0  0  0  0  0
   -0.6573  -52.1320   25.3955 C   0  0  0  0  0  0  0  0  0  0  0  0
   -2.0158  -52.5456   24.9124 O   0  0  0  0  0  0  0  0  0  0  0  0
   -3.2301  -51.7751   25.3388 C   0  0  0  0  0  0  0  0  0  0  0  0
   -0.1588  -50.3146   17.0317 H   0  0  0  0  0  0  0  0  0  0  0  0
    1.4335  -49.5576   17.5154 H   0  0  0  0  0  0  0  0  0  0  0  0
   -0.3366  -48.9911   17.9621 H   0  0  0  0  0  0  0  0  0  0  0  0
   -0.7914  -47.5535   19.5738 H   0  0  0  0  0  0  0  0  0  0  0  0
   -1.6199  -48.2020   18.1787 H   0  0  0  0  0  0  0  0  0  0  0  0
   -0.0290  -47.5011   18.0024 H   0  0  0  0  0  0  0  0  0  0  0  0
   -1.0971  -50.0732   20.5697 H   0  0  0  0  0  0  0  0  0  0  0  0
    0.5510  -49.3306   20.8430 H   0  0  0  0  0  0  0  0  0  0  0  0
    2.2158  -54.9475   21.2260 H   0  0  0  0  0  0  0  0  0  0  0  0
    3.6250  -52.8789   15.9247 H   0  0  0  0  0  0  0  0  0  0  0  0
    3.7769  -52.7307   17.6591 H   0  0  0  0  0  0  0  0  0  0  0  0
    3.7178  -51.2973   16.6616 H   0  0  0  0  0  0  0  0  0  0  0  0
    1.5356  -53.2847   16.9958 H   0  0  0  0  0  0  0  0  0  0  0  0
    1.5454  -51.7273   16.0383 H   0  0  0  0  0  0  0  0  0  0  0  0
   -0.8032  -50.4930   22.8523 H   0  0  0  0  0  0  0  0  0  0  0  0
    2.3062  -50.5570   24.3017 H   0  0  0  0  0  0  0  0  0  0  0  0
    2.9944  -51.0202   26.6939 H   0  0  0  0  0  0  0  0  0  0  0  0
   -4.1023  -52.2122   24.8995 H   0  0  0  0  0  0  0  0  0  0  0  0
   -3.1393  -50.7590   25.0161 H   0  0  0  0  0  0  0  0  0  0  0  0
   -3.3149  -51.8044   26.4050 H   0  0  0  0  0  0  0  0  0  0  0  0
  1  2  1  0  0  0  0
  2  3  1  0  0  0  0
  2 25  1  0  0  0  0
  2 26  1  0  0  0  0
  3  4  1  0  0  0  0
  3  5  1  0  0  0  0
  3 27  1  6  0  0  0
  4 28  1  0  0  0  0
  4 29  1  0  0  0  0
  4 30  1  0  0  0  0
  5  6  1  0  0  0  0
  5 31  1  0  0  0  0
  5 32  1  0  0  0  0
  6  7  2  0  0  0  0
  7 14  1  0  0  0  0
  7  8  1  0  0  0  0
  8  9  2  0  0  0  0
  9 10  1  0  0  0  0
  9 33  1  0  0  0  0
 10 11  2  0  0  0  0
 11  1  1  0  0  0  0
 11  6  1  0  0  0  0
 12 13  1  0  0  0  0
 12 34  1  0  0  0  0
 12 35  1  0  0  0  0
 12 36  1  0  0  0  0
 13  1  1  0  0  0  0
 13 37  1  0  0  0  0
 13 38  1  0  0  0  0
 14 15  1  0  0  0  0
 14 39  1  0  0  0  0
 15 16  2  0  0  0  0
 16 17  1  0  0  0  0
 16 40  1  0  0  0  0
 17 18  2  0  0  0  0
 17 41  1  0  0  0  0
 18 19  1  0  0  0  0
 18 20  1  0  0  0  0
 20 21  1  0  0  0  0
 20 22  2  0  0  0  0
 22 23  1  0  0  0  0
 22 15  1  0  0  0  0
 23 24  1  0  0  0  0
 24 42  1  0  0  0  0
 24 43  1  0  0  0  0
 24 44  1  0  0  0  0
M  END
>  <minimizedAffinity>
-7.74826

$$$$

 OpenBabel09092411003D

 45 47  0  0  0  0  0  0  0  0999 V2000
   -0.5382  -51.7679   21.6051 C   0  0  0  0  0  0  0  0  0  0  0  0
    0.3834  -52.8539   21.1348 C   0  0  0  0  0  0  0  0  0  0  0  0
    1.0228  -52.7610   19.7810 N   0  0  0  0  0  0  0  0  0  0  0  0
    0.7405  -51.5821   18.8976 C   0  0  0  0  0  0  0  0  0  0  0  0
   -0.1811  -50.4961   19.3679 N   0  0  0  0  0  0  0  0  0  0  0  0
   -0.8204  -50.5889   20.7216 C   0  0  0  0  0  0  0  0  0  0  0  0
    1.3798  -51.4893   17.5439 N   0  0  0  0  0  0  0  0  0  0  0  0
    0.7181  -50.6985   16.4545 C   0  0  0  0  0  0  0  0  0  0  0  0
    1.3575  -50.6056   15.1008 C   0  0  2  0  0  0  0  0  0  0  0  0
    0.6958  -49.8148   14.0114 C   0  0  0  0  0  0  0  0  0  0  0  0
    2.6586  -51.3037   14.8364 O   0  0  0  0  0  0  0  0  0  0  0  0
    3.3203  -52.0945   15.9257 C   0  0  2  0  0  0  0  0  0  0  0  0
    4.6214  -52.7925   15.6613 C   0  0  0  0  0  0  0  0  0  0  0  0
    2.6810  -52.1874   17.2794 C   0  0  0  0  0  0  0  0  0  0  0  0
   -1.1775  -51.8607   22.9588 N   0  0  0  0  0  0  0  0  0  0  0  0
   -0.8877  -52.2415   25.5125 C   0  0  0  0  0  0  0  0  0  0  0  0
   -0.3303  -51.7910   24.1948 C   0  0  0  0  0  0  0  0  0  0  0  0
    1.0742  -51.2709   24.1129 C   0  0  0  0  0  0  0  0  0  0  0  0
    1.9214  -51.2012   25.3488 C   0  0  0  0  0  0  0  0  0  0  0  0
    1.3640  -51.6516   26.6665 C   0  0  0  0  0  0  0  0  0  0  0  0
    2.2112  -51.5820   27.9024 Cl  0  0  0  0  0  0  0  0  0  0  0  0
   -0.0405  -52.1718   26.7483 C   0  0  0  0  0  0  0  0  0  0  0  0
   -0.5979  -52.6223   28.0661 F   0  0  0  0  0  0  0  0  0  0  0  0
   -3.4007  -51.8597   26.0500 C   0  0  0  0  0  0  0  0  0  0  0  0
   -2.2922  -52.7616   25.5943 O   0  0  0  0  0  0  0  0  0  0  0  0
    0.5776  -53.6650   21.7426 H   0  0  0  0  0  0  0  0  0  0  0  0
   -1.4544  -49.8416   21.0452 H   0  0  0  0  0  0  0  0  0  0  0  0
    0.6168  -49.6971   16.8176 H   0  0  0  0  0  0  0  0  0  0  0  0
   -0.1813  -51.2462   16.2646 H   0  0  0  0  0  0  0  0  0  0  0  0
    1.5488  -49.6448   15.5310 H   0  0  0  0  0  0  0  0  0  0  0  0
    0.3113  -50.4826   13.2691 H   0  0  0  0  0  0  0  0  0  0  0  0
    1.4110  -49.1571   13.5633 H   0  0  0  0  0  0  0  0  0  0  0  0
   -0.1069  -49.2406   14.4247 H   0  0  0  0  0  0  0  0  0  0  0  0
    2.6712  -51.2459   15.9846 H   0  0  0  0  0  0  0  0  0  0  0  0
    4.5080  -53.8403   15.8462 H   0  0  0  0  0  0  0  0  0  0  0  0
    5.3766  -52.3960   16.3073 H   0  0  0  0  0  0  0  0  0  0  0  0
    4.9077  -52.6391   14.6418 H   0  0  0  0  0  0  0  0  0  0  0  0
    3.3882  -51.7992   17.9823 H   0  0  0  0  0  0  0  0  0  0  0  0
    2.4252  -53.2232   17.3600 H   0  0  0  0  0  0  0  0  0  0  0  0
   -2.1531  -51.9674   23.0361 H   0  0  0  0  0  0  0  0  0  0  0  0
    1.4577  -50.9610   23.2063 H   0  0  0  0  0  0  0  0  0  0  0  0
    2.8877  -50.8434   25.2925 H   0  0  0  0  0  0  0  0  0  0  0  0
   -4.3246  -52.3995   26.0449 H   0  0  0  0  0  0  0  0  0  0  0  0
   -3.4735  -51.0218   25.3885 H   0  0  0  0  0  0  0  0  0  0  0  0
   -3.1948  -51.5145   27.0416 H   0  0  0  0  0  0  0  0  0  0  0  0
  1  2  2  0  0  0  0
  2  3  1  0  0  0  0
  2 26  1  0  0  0  0
  3  4  2  0  0  0  0
  4  7  1  0  0  0  0
  4  5  1  0  0  0  0
  5  6  2  0  0  0  0
  6  1  1  0  0  0  0
  6 27  1  0  0  0  0
  7  8  1  0  0  0  0
  8  9  1  0  0  0  0
  8 28  1  0  0  0  0
  8 29  1  0  0  0  0
  9 10  1  0  0  0  0
  9 11  1  0  0  0  0
  9 30  1  1  0  0  0
 10 31  1  0  0  0  0
 10 32  1  0  0  0  0
 10 33  1  0  0  0  0
 11 12  1  0  0  0  0
 12 13  1  0  0  0  0
 12 14  1  0  0  0  0
 12 34  1  1  0  0  0
 13 35  1  0  0  0  0
 13 36  1  0  0  0  0
 13 37  1  0  0  0  0
 14  7  1  0  0  0  0
 14 38  1  0  0  0  0
 14 39  1  0  0  0  0
 15  1  1  0  0  0  0
 15 40  1  0  0  0  0
 16 17  2  0  0  0  0
 17 15  1  0  0  0  0
 17 18  1  0  0  0  0
 18 19  2  0  0  0  0
 18 41  1  0  0  0  0
 19 20  1  0  0  0  0
 19 42  1  0  0  0  0
 20 21  1  0  0  0  0
 20 22  2  0  0  0  0
 22 23  1  0  0  0  0
 22 16  1  0  0  0  0
 24 25  1  0  0  0  0
 24 43  1  0  0  0  0
 24 44  1  0  0  0  0
 24 45  1  0  0  0  0
 25 16  1  0  0  0  0
M  END
>  <minimizedAffinity>
-7.32670

$$$$

 OpenBabel09092411003D

 37 38  0  0  0  0  0  0  0  0999 V2000
    0.1292  -50.2247   22.3055 N   0  0  0  0  0  0  0  0  0  0  0  0
    0.4365  -50.7384   20.9302 C   0  0  0  0  0  0  0  0  0  0  0  0
    0.7400  -52.1927   20.7232 C   0  0  0  0  0  0  0  0  0  0  0  0
    1.0473  -52.7064   19.3478 C   0  0  0  0  0  0  0  0  0  0  0  0
    1.0512  -51.7658   18.1794 C   0  0  0  0  0  0  0  0  0  0  0  0
    0.7477  -50.3114   18.3863 C   0  0  0  0  0  0  0  0  0  0  0  0
    0.7516  -49.3708   17.2179 F   0  0  0  0  0  0  0  0  0  0  0  0
    0.4404  -49.7977   19.7617 C   0  0  0  0  0  0  0  0  0  0  0  0
    0.1370  -48.3434   19.9687 F   0  0  0  0  0  0  0  0  0  0  0  0
    1.3585  -52.2795   16.8040 O   0  0  0  0  0  0  0  0  0  0  0  0
    2.7454  -52.1499   16.2475 C   0  0  0  0  0  0  0  0  0  0  0  0
   -0.7421  -52.5691   25.3869 C   0  0  0  0  0  0  0  0  0  0  0  0
   -2.2152  -52.7668   25.1849 N   0  0  0  0  0  0  0  0  0  0  0  0
   -2.9069  -52.1172   24.0232 C   0  0  0  0  0  0  0  0  0  0  0  0
   -2.1254  -51.2698   23.0634 N   0  0  0  0  0  0  0  0  0  0  0  0
   -0.6523  -51.0721   23.2654 C   0  0  0  0  0  0  0  0  0  0  0  0
    0.0393  -51.7217   24.4271 C   0  0  0  0  0  0  0  0  0  0  0  0
    1.5125  -51.5239   24.6290 C   0  0  0  0  0  0  0  0  0  0  0  0
   -0.0505  -53.2187   26.5486 N   0  0  0  0  0  0  0  0  0  0  0  0
    1.4254  -52.0662   28.3496 C   0  0  0  0  0  0  0  0  0  0  0  0
    0.0743  -52.4868   27.8520 C   0  0  0  0  0  0  0  0  0  0  0  0
    0.4404  -49.3314   22.5782 H   0  0  0  0  0  0  0  0  0  0  0  0
    0.7374  -52.8399   21.5271 H   0  0  0  0  0  0  0  0  0  0  0  0
    1.2560  -53.7070   19.2054 H   0  0  0  0  0  0  0  0  0  0  0  0
    2.7753  -52.5683   15.2632 H   0  0  0  0  0  0  0  0  0  0  0  0
    3.4332  -52.6730   16.8785 H   0  0  0  0  0  0  0  0  0  0  0  0
    3.0170  -51.1159   16.2039 H   0  0  0  0  0  0  0  0  0  0  0  0
   -3.9204  -52.2533   23.8843 H   0  0  0  0  0  0  0  0  0  0  0  0
    1.8976  -50.8956   23.8532 H   0  0  0  0  0  0  0  0  0  0  0  0
    2.0072  -52.4722   24.5985 H   0  0  0  0  0  0  0  0  0  0  0  0
    1.6835  -51.0628   25.5793 H   0  0  0  0  0  0  0  0  0  0  0  0
    0.3215  -54.1254   26.4556 H   0  0  0  0  0  0  0  0  0  0  0  0
    1.3190  -51.5611   29.2869 H   0  0  0  0  0  0  0  0  0  0  0  0
    1.8780  -51.4070   27.6386 H   0  0  0  0  0  0  0  0  0  0  0  0
    2.0430  -52.9304   28.4783 H   0  0  0  0  0  0  0  0  0  0  0  0
   -0.5133  -51.5969   27.7640 H   0  0  0  0  0  0  0  0  0  0  0  0
   -0.2381  -53.2132   28.5729 H   0  0  0  0  0  0  0  0  0  0  0  0
  1  2  1  0  0  0  0
  1 22  1  0  0  0  0
  2  3  2  0  0  0  0
  3  4  1  0  0  0  0
  3 23  1  0  0  0  0
  4  5  2  0  0  0  0
  4 24  1  0  0  0  0
  5 10  1  0  0  0  0
  5  6  1  0  0  0  0
  6  7  1  0  0  0  0
  6  8  2  0  0  0  0
  8  9  1  0  0  0  0
  8  2  1  0  0  0  0
 10 11  1  0  0  0  0
 11 25  1  0  0  0  0
 11 26  1  0  0  0  0
 11 27  1  0  0  0  0
 12 13  2  0  0  0  0
 13 14  1  0  0  0  0
 14 15  2  0  0  0  0
 14 28  1  0  0  0  0
 15 16  1  0  0  0  0
 16  1  1  0  0  0  0
 16 17  2  0  0  0  0
 17 18  1  0  0  0  0
 17 12  1  0  0  0  0
 18 29  1  0  0  0  0
 18 30  1  0  0  0  0
 18 31  1  0  0  0  0
 19 12  1  0  0  0  0
 19 32  1  0  0  0  0
 20 21  1  0  0  0  0
 20 33  1  0  0  0  0
 20 34  1  0  0  0  0
 20 35  1  0  0  0  0
 21 19  1  0  0  0  0
 21 36  1  0  0  0  0
 21 37  1  0  0  0  0
M  END
>  <minimizedAffinity>
-6.47862

$$$$

 OpenBabel09092411003D

 47 50  0  0  0  0  0  0  0  0999 V2000
    0.3591  -52.1444   21.9284 C   0  0  0  0  0  0  0  0  0  0  0  0
    1.1493  -53.4010   22.1441 N   0  0  0  0  0  0  0  0  0  0  0  0
    1.9673  -53.9739   21.0249 C   0  0  0  0  0  0  0  0  0  0  0  0
    1.9951  -53.2903   19.6901 N   0  0  0  0  0  0  0  0  0  0  0  0
    1.2049  -52.0337   19.4744 C   0  0  0  0  0  0  0  0  0  0  0  0
    0.3869  -51.4608   20.5936 C   0  0  0  0  0  0  0  0  0  0  0  0
   -0.4033  -50.2041   20.3779 C   0  0  0  0  0  0  0  0  0  0  0  0
   -0.3755  -49.5205   19.0430 C   0  0  1  0  0  0  0  0  0  0  0  0
   -1.1657  -48.2639   18.8273 C   0  0  0  0  0  0  0  0  0  0  0  0
   -1.1379  -47.5803   17.4925 C   0  0  0  0  0  0  0  0  0  0  0  0
   -0.3200  -48.1532   16.3733 N   0  3  1  0  0  0  0  0  0  0  0  0
   -0.2922  -47.4696   15.0384 C   0  0  0  0  0  0  0  0  0  0  0  0
    0.4703  -49.4099   16.5890 C   0  0  0  0  0  0  0  0  0  0  0  0
    0.4425  -50.0935   17.9238 C   0  0  1  0  0  0  0  0  0  0  0  0
    1.2327  -51.3501   18.1395 O   0  0  0  0  0  0  0  0  0  0  0  0
   -0.4589  -51.5714   23.0476 N   0  0  0  0  0  0  0  0  0  0  0  0
   -0.8735  -52.2828   25.5118 C   0  0  0  0  0  0  0  0  0  0  0  0
    0.0209  -51.6895   24.4639 C   0  0  0  0  0  0  0  0  0  0  0  0
    1.3951  -51.2142   24.8323 C   0  0  0  0  0  0  0  0  0  0  0  0
    1.8749  -51.3322   26.2486 C   0  0  0  0  0  0  0  0  0  0  0  0
    0.9804  -51.9256   27.2965 C   0  0  0  0  0  0  0  0  0  0  0  0
    1.4602  -52.0437   28.7128 Cl  0  0  0  0  0  0  0  0  0  0  0  0
   -0.3937  -52.4009   26.9281 C   0  0  0  0  0  0  0  0  0  0  0  0
   -1.2882  -52.9942   27.9759 F   0  0  0  0  0  0  0  0  0  0  0  0
   -3.4409  -51.8941   25.4256 C   0  0  0  0  0  0  0  0  0  0  0  0
   -2.2477  -52.7581   25.1433 O   0  0  0  0  0  0  0  0  0  0  0  0
    2.5110  -54.8384   21.1733 H   0  0  0  0  0  0  0  0  0  0  0  0
   -0.0542  -49.4925   21.0967 H   0  0  0  0  0  0  0  0  0  0  0  0
   -1.4177  -50.5335   20.4645 H   0  0  0  0  0  0  0  0  0  0  0  0
    0.2633  -50.3680   18.9069 H   0  0  0  0  0  0  0  0  0  0  0  0
   -0.8166  -47.5523   19.5461 H   0  0  0  0  0  0  0  0  0  0  0  0
   -2.1800  -48.5933   18.9138 H   0  0  0  0  0  0  0  0  0  0  0  0
   -0.7773  -46.5872   17.6616 H   0  0  0  0  0  0  0  0  0  0  0  0
   -2.1431  -47.6856   17.1413 H   0  0  0  0  0  0  0  0  0  0  0  0
   -1.0753  -47.5881   15.9853 H   0  0  0  0  0  0  0  0  0  0  0  0
    0.6425  -47.6666   14.5562 H   0  0  0  0  0  0  0  0  0  0  0  0
   -0.4075  -46.4147   15.1754 H   0  0  0  0  0  0  0  0  0  0  0  0
   -1.0917  -47.8399   14.4313 H   0  0  0  0  0  0  0  0  0  0  0  0
    1.4932  -49.1702   16.3860 H   0  0  0  0  0  0  0  0  0  0  0  0
   -0.0075  -50.1151   15.9415 H   0  0  0  0  0  0  0  0  0  0  0  0
   -0.0504  -50.8394   17.3360 H   0  0  0  0  0  0  0  0  0  0  0  0
   -1.3107  -51.1178   22.8526 H   0  0  0  0  0  0  0  0  0  0  0  0
    2.0104  -50.8060   24.1114 H   0  0  0  0  0  0  0  0  0  0  0  0
    2.8203  -51.0052   26.5021 H   0  0  0  0  0  0  0  0  0  0  0  0
   -4.3284  -52.3932   25.0969 H   0  0  0  0  0  0  0  0  0  0  0  0
   -3.3401  -50.9653   24.9040 H   0  0  0  0  0  0  0  0  0  0  0  0
   -3.5053  -51.7074   26.4772 H   0  0  0  0  0  0  0  0  0  0  0  0
  1  2  2  0  0  0  0
  2  3  1  0  0  0  0
  3  4  2  0  0  0  0
  3 27  1  0  0  0  0
  4  5  1  0  0  0  0
  5  6  2  0  0  0  0
  6  7  1  0  0  0  0
  6  1  1  0  0  0  0
  7 28  1  0  0  0  0
  7 29  1  0  0  0  0
  8  7  1  0  0  0  0
  8  9  1  0  0  0  0
  8 30  1  6  0  0  0
  9 10  1  0  0  0  0
  9 31  1  0  0  0  0
  9 32  1  0  0  0  0
 10 11  1  0  0  0  0
 10 33  1  0  0  0  0
 10 34  1  0  0  0  0
 11 12  1  0  0  0  0
 11 13  1  0  0  0  0
 11 35  1  6  0  0  0
 12 36  1  0  0  0  0
 12 37  1  0  0  0  0
 12 38  1  0  0  0  0
 13 39  1  0  0  0  0
 13 40  1  0  0  0  0
 14 13  1  0  0  0  0
 14 15  1  0  0  0  0
 14  8  1  0  0  0  0
 14 41  1  6  0  0  0
 15  5  1  0  0  0  0
 16  1  1  0  0  0  0
 16 42  1  0  0  0  0
 17 18  2  0  0  0  0
 18 16  1  0  0  0  0
 18 19  1  0  0  0  0
 19 20  2  0  0  0  0
 19 43  1  0  0  0  0
 20 21  1  0  0  0  0
 20 44  1  0  0  0  0
 21 22  1  0  0  0  0
 21 23  2  0  0  0  0
 23 24  1  0  0  0  0
 23 17  1  0  0  0  0
 25 26  1  0  0  0  0
 25 45  1  0  0  0  0
 25 46  1  0  0  0  0
 25 47  1  0  0  0  0
 26 17  1  0  0  0  0
M  CHG  1  11   1
M  END
>  <minimizedAffinity>
-8.05891

$$$$

 OpenBabel09092411003D

 40 41  0  0  0  0  0  0  0  0999 V2000
    1.2575  -53.2730   19.6484 N   0  0  0  0  0  0  0  0  0  0  0  0
    0.6230  -52.2708   18.7302 C   0  0  0  0  0  0  0  0  0  0  0  0
   -0.7560  -51.7563   19.0194 C   0  0  0  0  0  0  0  0  0  0  0  0
   -1.3904  -50.7541   18.1013 C   0  0  0  0  0  0  0  0  0  0  0  0
   -0.6459  -50.2664   16.8938 C   0  0  0  0  0  0  0  0  0  0  0  0
   -1.2804  -49.2642   15.9756 Cl  0  0  0  0  0  0  0  0  0  0  0  0
    0.7330  -50.7809   16.6046 C   0  0  0  0  0  0  0  0  0  0  0  0
    1.3676  -51.7831   17.5228 C   0  0  0  0  0  0  0  0  0  0  0  0
    2.7465  -52.2976   17.2336 F   0  0  0  0  0  0  0  0  0  0  0  0
    1.4776  -50.2933   15.3972 O   0  0  0  0  0  0  0  0  0  0  0  0
    1.5327  -51.1375   14.1585 C   0  0  0  0  0  0  0  0  0  0  0  0
    1.1279  -52.6422   24.1021 C   0  0  0  0  0  0  0  0  0  0  0  0
    0.9413  -51.4786   23.1741 N   0  0  0  0  0  0  0  0  0  0  0  0
    0.9845  -51.6889   21.6895 C   0  0  0  0  0  0  0  0  0  0  0  0
    1.2143  -53.0627   21.1330 C   0  0  0  0  0  0  0  0  0  0  0  0
    1.4010  -54.2262   22.0610 C   0  0  0  0  0  0  0  0  0  0  0  0
    1.3578  -54.0160   23.5456 N   0  0  0  0  0  0  0  0  0  0  0  0
    1.0848  -52.4319   25.5867 N   0  0  0  0  0  0  0  0  0  0  0  0
    3.1479  -51.5243   26.8788 C   0  0  0  0  0  0  0  0  0  0  0  0
    1.8298  -51.2856   26.2038 C   0  0  0  0  0  0  0  0  0  0  0  0
    0.2966  -53.3680   26.4541 C   0  0  0  0  0  0  0  0  0  0  0  0
   -0.2476  -52.8933   27.7688 C   0  0  0  0  0  0  0  0  0  0  0  0
    1.7023  -54.0688   19.2767 H   0  0  0  0  0  0  0  0  0  0  0  0
   -1.2683  -52.0919   19.8501 H   0  0  0  0  0  0  0  0  0  0  0  0
   -2.3391  -50.4001   18.3003 H   0  0  0  0  0  0  0  0  0  0  0  0
    2.1026  -50.6318   13.4073 H   0  0  0  0  0  0  0  0  0  0  0  0
    0.5396  -51.3077   13.7984 H   0  0  0  0  0  0  0  0  0  0  0  0
    1.9952  -52.0751   14.3862 H   0  0  0  0  0  0  0  0  0  0  0  0
    0.8561  -50.8884   21.0510 H   0  0  0  0  0  0  0  0  0  0  0  0
    1.5592  -55.1714   21.6781 H   0  0  0  0  0  0  0  0  0  0  0  0
    3.5281  -50.5982   27.2565 H   0  0  0  0  0  0  0  0  0  0  0  0
    3.8409  -51.9333   26.1735 H   0  0  0  0  0  0  0  0  0  0  0  0
    3.0150  -52.2117   27.6879 H   0  0  0  0  0  0  0  0  0  0  0  0
    2.0068  -50.5760   25.4228 H   0  0  0  0  0  0  0  0  0  0  0  0
    1.1927  -50.9828   27.0084 H   0  0  0  0  0  0  0  0  0  0  0  0
    0.9325  -54.2020   26.6661 H   0  0  0  0  0  0  0  0  0  0  0  0
   -0.5844  -53.5555   25.8765 H   0  0  0  0  0  0  0  0  0  0  0  0
    0.5629  -52.6742   28.4321 H   0  0  0  0  0  0  0  0  0  0  0  0
   -0.8624  -53.6572   28.1970 H   0  0  0  0  0  0  0  0  0  0  0  0
   -0.8315  -52.0099   27.6151 H   0  0  0  0  0  0  0  0  0  0  0  0
  1  2  1  0  0  0  0
  1 23  1  0  0  0  0
  2  3  2  0  0  0  0
  3  4  1  0  0  0  0
  3 24  1  0  0  0  0
  4  5  2  0  0  0  0
  4 25  1  0  0  0  0
  5  6  1  0  0  0  0
  5  7  1  0  0  0  0
  7 10  1  0  0  0  0
  7  8  2  0  0  0  0
  8  9  1  0  0  0  0
  8  2  1  0  0  0  0
 10 11  1  0  0  0  0
 11 26  1  0  0  0  0
 11 27  1  0  0  0  0
 11 28  1  0  0  0  0
 12 13  2  0  0  0  0
 13 14  1  0  0  0  0
 14 15  2  0  0  0  0
 14 29  1  0  0  0  0
 15  1  1  0  0  0  0
 15 16  1  0  0  0  0
 16 17  2  0  0  0  0
 16 30  1  0  0  0  0
 17 12  1  0  0  0  0
 18 21  1  0  0  0  0
 18 12  1  0  0  0  0
 19 20  1  0  0  0  0
 19 31  1  0  0  0  0
 19 32  1  0  0  0  0
 19 33  1  0  0  0  0
 20 18  1  0  0  0  0
 20 34  1  0  0  0  0
 20 35  1  0  0  0  0
 21 22  1  0  0  0  0
 21 36  1  0  0  0  0
 21 37  1  0  0  0  0
 22 38  1  0  0  0  0
 22 39  1  0  0  0  0
 22 40  1  0  0  0  0
M  END
>  <minimizedAffinity>
-5.96975

$$$$

 OpenBabel09092411003D

 45 48  0  0  0  0  0  0  0  0999 V2000
   -1.1595  -51.1654   23.0179 C   0  0  0  0  0  0  0  0  0  0  0  0
   -2.2973  -51.0714   22.0450 N   0  0  0  0  0  0  0  0  0  0  0  0
   -3.7066  -51.2725   22.5176 C   0  0  0  0  0  0  0  0  0  0  0  0
   -3.9781  -51.5676   23.9630 N   0  0  0  0  0  0  0  0  0  0  0  0
   -2.8403  -51.6616   24.9359 C   0  0  0  0  0  0  0  0  0  0  0  0
   -1.4310  -51.4605   24.4633 C   0  0  0  0  0  0  0  0  0  0  0  0
   -0.2931  -51.5544   25.4362 C   0  0  2  0  0  0  0  0  0  0  0  0
    1.1895  -51.4044   25.2643 C   0  0  0  0  0  0  0  0  0  0  0  0
    1.8342  -51.6068   26.6034 N   0  3  1  0  0  0  0  0  0  0  0  0
    3.3048  -51.5449   26.8923 C   0  0  0  0  0  0  0  0  0  0  0  0
    0.7502  -51.8818   27.6030 C   0  0  0  0  0  0  0  0  0  0  0  0
   -0.5646  -51.8495   26.8816 C   0  0  1  0  0  0  0  0  0  0  0  0
   -1.9740  -52.0506   27.3542 C   0  0  0  0  0  0  0  0  0  0  0  0
   -3.1118  -51.9566   26.3813 C   0  0  0  0  0  0  0  0  0  0  0  0
    0.2499  -50.9643   22.5454 O   0  0  0  0  0  0  0  0  0  0  0  0
    1.3673  -51.9758   18.3053 C   0  0  0  0  0  0  0  0  0  0  0  0
    1.5860  -52.9795   19.3983 C   0  0  0  0  0  0  0  0  0  0  0  0
    1.2136  -52.6423   20.8117 C   0  0  0  0  0  0  0  0  0  0  0  0
    0.6224  -51.3015   21.1320 C   0  0  0  0  0  0  0  0  0  0  0  0
    0.4036  -50.2978   20.0389 C   0  0  0  0  0  0  0  0  0  0  0  0
   -0.1876  -48.9569   20.3592 F   0  0  0  0  0  0  0  0  0  0  0  0
    0.7761  -50.6349   18.6256 C   0  0  0  0  0  0  0  0  0  0  0  0
    0.5573  -49.6313   17.5325 Cl  0  0  0  0  0  0  0  0  0  0  0  0
    3.1833  -52.3560   16.4866 C   0  0  0  0  0  0  0  0  0  0  0  0
    1.7398  -52.3130   16.8919 O   0  0  0  0  0  0  0  0  0  0  0  0
   -4.4895  -51.2078   21.8483 H   0  0  0  0  0  0  0  0  0  0  0  0
   -0.5428  -51.3797   24.4105 H   0  0  0  0  0  0  0  0  0  0  0  0
    1.4152  -50.4251   24.8969 H   0  0  0  0  0  0  0  0  0  0  0  0
    1.5570  -52.1235   24.5624 H   0  0  0  0  0  0  0  0  0  0  0  0
    2.8343  -51.5654   26.7996 H   0  0  0  0  0  0  0  0  0  0  0  0
    3.5350  -50.6174   27.3736 H   0  0  0  0  0  0  0  0  0  0  0  0
    3.8517  -51.6163   25.9754 H   0  0  0  0  0  0  0  0  0  0  0  0
    3.5767  -52.3569   27.5339 H   0  0  0  0  0  0  0  0  0  0  0  0
    0.7632  -51.1336   28.3678 H   0  0  0  0  0  0  0  0  0  0  0  0
    0.8999  -52.8375   28.0602 H   0  0  0  0  0  0  0  0  0  0  0  0
   -1.1683  -52.0601   27.7396 H   0  0  0  0  0  0  0  0  0  0  0  0
   -2.1536  -51.3163   28.1115 H   0  0  0  0  0  0  0  0  0  0  0  0
   -1.9893  -53.0782   27.6521 H   0  0  0  0  0  0  0  0  0  0  0  0
   -3.7600  -51.1836   26.7379 H   0  0  0  0  0  0  0  0  0  0  0  0
   -3.5002  -52.9534   26.3601 H   0  0  0  0  0  0  0  0  0  0  0  0
    1.9927  -53.9020   19.1779 H   0  0  0  0  0  0  0  0  0  0  0  0
    1.3642  -53.3328   21.5637 H   0  0  0  0  0  0  0  0  0  0  0  0
    3.2553  -52.6114   15.4500 H   0  0  0  0  0  0  0  0  0  0  0  0
    3.6962  -53.0907   17.0714 H   0  0  0  0  0  0  0  0  0  0  0  0
    3.6282  -51.3966   16.6493 H   0  0  0  0  0  0  0  0  0  0  0  0
  1  2  2  0  0  0  0
  2  3  1  0  0  0  0
  3  4  2  0  0  0  0
  3 26  1  0  0  0  0
  4  5  1  0  0  0  0
  5  6  2  0  0  0  0
  6  7  1  0  0  0  0
  6  1  1  0  0  0  0
  7  8  1  0  0  0  0
  7 27  1  1  0  0  0
  8  9  1  0  0  0  0
  8 28  1  0  0  0  0
  8 29  1  0  0  0  0
  9 10  1  0  0  0  0
  9 11  1  0  0  0  0
  9 30  1  6  0  0  0
 10 31  1  0  0  0  0
 10 32  1  0  0  0  0
 10 33  1  0  0  0  0
 11 34  1  0  0  0  0
 11 35  1  0  0  0  0
 12 11  1  0  0  0  0
 12 13  1  0  0  0  0
 12  7  1  0  0  0  0
 12 36  1  6  0  0  0
 13 14  1  0  0  0  0
 13 37  1  0  0  0  0
 13 38  1  0  0  0  0
 14  5  1  0  0  0  0
 14 39  1  0  0  0  0
 14 40  1  0  0  0  0
 15  1  1  0  0  0  0
 16 17  2  0  0  0  0
 17 18  1  0  0  0  0
 17 41  1  0  0  0  0
 18 19  2  0  0  0  0
 18 42  1  0  0  0  0
 19 15  1  0  0  0  0
 19 20  1  0  0  0  0
 20 21  1  0  0  0  0
 20 22  2  0  0  0  0
 22 23  1  0  0  0  0
 22 16  1  0  0  0  0
 24 25  1  0  0  0  0
 24 43  1  0  0  0  0
 24 44  1  0  0  0  0
 24 45  1  0  0  0  0
 25 16  1  0  0  0  0
M  CHG  1   9   1
M  END
>  <minimizedAffinity>
-7.89175

$$$$

 OpenBabel09092411003D

 56 59  0  0  0  0  0  0  0  0999 V2000
    1.0217  -51.9077   22.5778 C   0  0  0  0  0  0  0  0  0  0  0  0
    1.1677  -53.3533   22.9503 N   0  0  0  0  0  0  0  0  0  0  0  0
    1.4120  -54.3812   21.8854 C   0  0  0  0  0  0  0  0  0  0  0  0
    1.5103  -53.9634   20.4481 N   0  0  0  0  0  0  0  0  0  0  0  0
    1.3643  -52.5177   20.0757 C   0  0  0  0  0  0  0  0  0  0  0  0
    1.1200  -51.4899   21.1404 C   0  0  0  0  0  0  0  0  0  0  0  0
    0.9739  -50.0442   20.7680 Cl  0  0  0  0  0  0  0  0  0  0  0  0
    1.4626  -52.0999   18.6383 C   0  0  2  0  0  0  0  0  0  0  0  0
    0.3426  -51.3309   18.0026 C   0  0  0  0  0  0  0  0  0  0  0  0
    0.4409  -50.9132   16.5653 C   0  0  0  0  0  0  0  0  0  0  0  0
    1.6592  -51.2645   15.7638 C   0  0  1  0  0  0  0  0  0  0  0  0
    2.0360  -50.9903   14.3380 C   0  0  0  0  0  0  0  0  0  0  0  0
    3.3889  -51.5899   14.0926 N   0  3  1  0  0  0  0  0  0  0  0  0
    4.1491  -51.5515   12.8000 C   0  0  0  0  0  0  0  0  0  0  0  0
    3.8482  -52.2346   15.3667 C   0  0  0  0  0  0  0  0  0  0  0  0
    2.7792  -52.0335   16.3996 C   0  0  2  0  0  0  0  0  0  0  0  0
    2.6808  -52.4512   17.8368 C   0  0  0  0  0  0  0  0  0  0  0  0
    0.7774  -50.8798   23.6425 N   0  0  0  0  0  0  0  0  0  0  0  0
    0.3590  -51.9128   27.4515 C   0  0  0  0  0  0  0  0  0  0  0  0
    1.7756  -51.8028   27.9323 C   0  0  0  0  0  0  0  0  0  0  0  0
    2.8594  -51.3852   26.9832 C   0  0  0  0  0  0  0  0  0  0  0  0
    2.5267  -51.0775   25.5533 C   0  0  0  0  0  0  0  0  0  0  0  0
    1.1101  -51.1875   25.0725 C   0  0  0  0  0  0  0  0  0  0  0  0
    0.0263  -51.6051   26.0216 C   0  0  0  0  0  0  0  0  0  0  0  0
   -1.4109  -53.6522   28.2208 C   0  0  0  0  0  0  0  0  0  0  0  0
   -0.7249  -52.3304   28.4006 O   0  0  0  0  0  0  0  0  0  0  0  0
   -1.3904  -51.7151   25.5408 O   0  0  0  0  0  0  0  0  0  0  0  0
   -2.3443  -50.5767   25.7511 C   0  0  0  0  0  0  0  0  0  0  0  0
    1.5124  -55.3758   22.1417 H   0  0  0  0  0  0  0  0  0  0  0  0
    2.2271  -51.4890   18.2056 H   0  0  0  0  0  0  0  0  0  0  0  0
    0.2174  -50.4365   18.5764 H   0  0  0  0  0  0  0  0  0  0  0  0
   -0.4664  -52.0312   18.0005 H   0  0  0  0  0  0  0  0  0  0  0  0
    0.3561  -49.8467   16.5471 H   0  0  0  0  0  0  0  0  0  0  0  0
   -0.3359  -51.4765   16.0918 H   0  0  0  0  0  0  0  0  0  0  0  0
    0.7087  -50.7747   15.7245 H   0  0  0  0  0  0  0  0  0  0  0  0
    2.0705  -49.9344   14.1682 H   0  0  0  0  0  0  0  0  0  0  0  0
    1.3140  -51.4177   13.6739 H   0  0  0  0  0  0  0  0  0  0  0  0
    3.9056  -51.5639   13.2135 H   0  0  0  0  0  0  0  0  0  0  0  0
    5.1692  -51.2933   12.9937 H   0  0  0  0  0  0  0  0  0  0  0  0
    3.7131  -50.8206   12.1514 H   0  0  0  0  0  0  0  0  0  0  0  0
    4.1072  -52.5132   12.3329 H   0  0  0  0  0  0  0  0  0  0  0  0
    4.7601  -51.7812   15.6949 H   0  0  0  0  0  0  0  0  0  0  0  0
    4.0243  -53.2787   15.2125 H   0  0  0  0  0  0  0  0  0  0  0  0
    3.2888  -52.5457   17.1888 H   0  0  0  0  0  0  0  0  0  0  0  0
    3.5186  -52.0182   18.3423 H   0  0  0  0  0  0  0  0  0  0  0  0
    2.6384  -53.5189   17.7802 H   0  0  0  0  0  0  0  0  0  0  0  0
    0.3987  -50.0032   23.4028 H   0  0  0  0  0  0  0  0  0  0  0  0
    2.0045  -52.0144   28.9161 H   0  0  0  0  0  0  0  0  0  0  0  0
    3.8340  -51.3096   27.3140 H   0  0  0  0  0  0  0  0  0  0  0  0
    3.2724  -50.7901   24.9003 H   0  0  0  0  0  0  0  0  0  0  0  0
   -2.1494  -53.7776   28.9849 H   0  0  0  0  0  0  0  0  0  0  0  0
   -0.6902  -54.4402   28.2885 H   0  0  0  0  0  0  0  0  0  0  0  0
   -1.8824  -53.6817   27.2607 H   0  0  0  0  0  0  0  0  0  0  0  0
   -3.3008  -50.8334   25.3461 H   0  0  0  0  0  0  0  0  0  0  0  0
   -1.9712  -49.7031   25.2585 H   0  0  0  0  0  0  0  0  0  0  0  0
   -2.4413  -50.3815   26.7987 H   0  0  0  0  0  0  0  0  0  0  0  0
  1  2  2  0  0  0  0
  2  3  1  0  0  0  0
  3  4  2  0  0  0  0
  3 29  1  0  0  0  0
  4  5  1  0  0  0  0
  5  6  2  0  0  0  0
  6  7  1  0  0  0  0
  6  1  1  0  0  0  0
  8  5  1  0  0  0  0
  8  9  1  0  0  0  0
  8 30  1  1  0  0  0
  9 10  1  0  0  0  0
  9 31  1  0  0  0  0
  9 32  1  0  0  0  0
 10 33  1  0  0  0  0
 10 34  1  0  0  0  0
 11 10  1  0  0  0  0
 11 12  1  0  0  0  0
 11 35  1  6  0  0  0
 12 13  1  0  0  0  0
 12 36  1  0  0  0  0
 12 37  1  0  0  0  0
 13 14  1  0  0  0  0
 13 15  1  0  0  0  0
 13 38  1  6  0  0  0
 14 39  1  0  0  0  0
 14 40  1  0  0  0  0
 14 41  1  0  0  0  0
 15 42  1  0  0  0  0
 15 43  1  0  0  0  0
 16 15  1  0  0  0  0
 16 17  1  0  0  0  0
 16 11  1  0  0  0  0
 16 44  1  1  0  0  0
 17  8  1  0  0  0  0
 17 45  1  0  0  0  0
 17 46  1  0  0  0  0
 18  1  1  0  0  0  0
 18 47  1  0  0  0  0
 19 20  2  0  0  0  0
 20 21  1  0  0  0  0
 20 48  1  0  0  0  0
 21 22  2  0  0  0  0
 21 49  1  0  0  0  0
 22 23  1  0  0  0  0
 22 50  1  0  0  0  0
 23 18  1  0  0  0  0
 23 24  2  0  0  0  0
 24 27  1  0  0  0  0
 24 19  1  0  0  0  0
 25 26  1  0  0  0  0
 25 51  1  0  0  0  0
 25 52  1  0  0  0  0
 25 53  1  0  0  0  0
 26 19  1  0  0  0  0
 27 28  1  0  0  0  0
 28 54  1  0  0  0  0
 28 55  1  0  0  0  0
 28 56  1  0  0  0  0
M  CHG  1  13   1
M  END
>  <minimizedAffinity>
-8.32482

$$$$

 OpenBabel09092411003D

 42 43  0  0  0  0  0  0  0  0999 V2000
   -3.0438  -49.4955   21.4751 C   0  0  0  0  0  0  0  0  0  0  0  0
   -0.4514  -49.5667   21.6314 C   0  0  0  0  0  0  0  0  0  0  0  0
   -1.7235  -49.9752   20.9494 N   0  0  0  0  0  0  0  0  0  0  0  0
   -1.6750  -50.8636   19.7418 C   0  0  0  0  0  0  0  0  0  0  0  0
   -2.9470  -51.2722   19.0598 O   0  0  0  0  0  0  0  0  0  0  0  0
   -0.3546  -51.3434   19.2161 C   0  0  0  0  0  0  0  0  0  0  0  0
    0.1191  -50.9020   17.8630 C   0  0  0  0  0  0  0  0  0  0  0  0
    1.4395  -51.3818   17.3374 C   0  0  0  0  0  0  0  0  0  0  0  0
    1.9133  -50.9405   15.9843 F   0  0  0  0  0  0  0  0  0  0  0  0
    2.2862  -52.3029   18.1649 C   0  0  0  0  0  0  0  0  0  0  0  0
    1.8125  -52.7443   19.5179 C   0  0  0  0  0  0  0  0  0  0  0  0
    2.6592  -53.6654   20.3453 F   0  0  0  0  0  0  0  0  0  0  0  0
    0.4921  -52.2645   20.0435 C   0  0  0  0  0  0  0  0  0  0  0  0
   -3.8115  -50.3348   22.4529 C   0  0  0  0  0  0  0  0  0  0  0  0
   -3.1956  -51.5806   23.0176 C   0  0  0  0  0  0  0  0  0  0  0  0
   -3.0507  -51.7392   24.5021 N   0  0  0  0  0  0  0  0  0  0  0  0
   -4.2693  -51.7616   25.3765 C   0  0  0  0  0  0  0  0  0  0  0  0
   -1.6872  -51.8754   25.1123 C   0  0  0  0  0  0  0  0  0  0  0  0
   -1.1036  -53.2369   25.3481 N   0  0  0  0  0  0  0  0  0  0  0  0
    0.2599  -53.3730   25.9583 C   0  0  0  0  0  0  0  0  0  0  0  0
    1.0398  -52.1476   26.3326 C   0  0  0  0  0  0  0  0  0  0  0  0
    0.4562  -50.7861   26.0968 N   0  0  0  0  0  0  0  0  0  0  0  0
   -0.9072  -50.6500   25.4866 C   0  0  0  0  0  0  0  0  0  0  0  0
   -1.4909  -49.2884   25.2507 C   0  0  0  0  0  0  0  0  0  0  0  0
   -2.0744  -47.9269   25.0148 N   0  0  0  0  0  0  0  0  0  0  0  0
   -3.6796  -49.3502   20.6269 H   0  0  0  0  0  0  0  0  0  0  0  0
   -2.7810  -48.6301   22.0470 H   0  0  0  0  0  0  0  0  0  0  0  0
   -0.6804  -48.9383   22.4666 H   0  0  0  0  0  0  0  0  0  0  0  0
    0.1673  -49.0317   20.9415 H   0  0  0  0  0  0  0  0  0  0  0  0
    0.0663  -50.4388   21.9726 H   0  0  0  0  0  0  0  0  0  0  0  0
   -0.4634  -50.2683   17.2937 H   0  0  0  0  0  0  0  0  0  0  0  0
    3.1947  -52.6329   17.8033 H   0  0  0  0  0  0  0  0  0  0  0  0
    0.1662  -52.5681   20.9744 H   0  0  0  0  0  0  0  0  0  0  0  0
   -4.7149  -50.6318   21.9625 H   0  0  0  0  0  0  0  0  0  0  0  0
   -3.9023  -49.6965   23.3068 H   0  0  0  0  0  0  0  0  0  0  0  0
   -2.2126  -51.6551   22.6016 H   0  0  0  0  0  0  0  0  0  0  0  0
   -3.8994  -52.3431   22.7564 H   0  0  0  0  0  0  0  0  0  0  0  0
   -5.1448  -51.6525   24.7711 H   0  0  0  0  0  0  0  0  0  0  0  0
   -4.2189  -50.9562   26.0792 H   0  0  0  0  0  0  0  0  0  0  0  0
   -4.3135  -52.6921   25.9030 H   0  0  0  0  0  0  0  0  0  0  0  0
    0.6614  -54.3097   26.1206 H   0  0  0  0  0  0  0  0  0  0  0  0
    1.9779  -52.2413   26.7524 H   0  0  0  0  0  0  0  0  0  0  0  0
  1 14  1  0  0  0  0
  1 26  1  0  0  0  0
  1 27  1  0  0  0  0
  2  3  1  0  0  0  0
  2 28  1  0  0  0  0
  2 29  1  0  0  0  0
  2 30  1  0  0  0  0
  3  1  1  0  0  0  0
  3  4  1  0  0  0  0
  4  5  2  0  0  0  0
  4  6  1  0  0  0  0
  6  7  2  0  0  0  0
  7  8  1  0  0  0  0
  7 31  1  0  0  0  0
  8  9  1  0  0  0  0
  8 10  2  0  0  0  0
 10 11  1  0  0  0  0
 10 32  1  0  0  0  0
 11 12  1  0  0  0  0
 11 13  2  0  0  0  0
 13  6  1  0  0  0  0
 13 33  1  0  0  0  0
 14 15  1  0  0  0  0
 14 34  1  0  0  0  0
 14 35  1  0  0  0  0
 15 16  1  0  0  0  0
 15 36  1  0  0  0  0
 15 37  1  0  0  0  0
 16 17  1  0  0  0  0
 16 18  1  0  0  0  0
 17 38  1  0  0  0  0
 17 39  1  0  0  0  0
 17 40  1  0  0  0  0
 18 19  2  0  0  0  0
 19 20  1  0  0  0  0
 20 21  2  0  0  0  0
 20 41  1  0  0  0  0
 21 22  1  0  0  0  0
 21 42  1  0  0  0  0
 22 23  2  0  0  0  0
 23 24  1  0  0  0  0
 23 18  1  0  0  0  0
 24 25  3  0  0  0  0
M  END
>  <minimizedAffinity>
-6.21568

$$$$

 OpenBabel09092411003D

 43 45  0  0  0  0  0  0  0  0999 V2000
   -0.9644  -52.0909   26.7692 C   0  0  0  0  0  0  0  0  0  0  0  0
   -0.6337  -52.8727   25.5324 C   0  0  0  0  0  0  0  0  0  0  0  0
    0.7917  -52.9966   25.0822 C   0  0  0  0  0  0  0  0  0  0  0  0
    1.8866  -52.3388   25.8687 N   0  0  0  0  0  0  0  0  0  0  0  0
    1.5559  -51.5571   27.1054 C   0  0  0  0  0  0  0  0  0  0  0  0
    0.1304  -51.4331   27.5557 N   0  0  0  0  0  0  0  0  0  0  0  0
   -2.3898  -51.9670   27.2193 N   0  0  0  0  0  0  0  0  0  0  0  0
   -6.1854  -48.4176   24.2202 C   0  0  0  0  0  0  0  0  0  0  0  0
   -5.2365  -49.3049   24.9700 N   0  3  1  0  0  0  0  0  0  0  0  0
   -5.0822  -50.7432   24.5730 C   0  0  0  0  0  0  0  0  0  0  0  0
   -4.1333  -51.6305   25.3228 C   0  0  0  0  0  0  0  0  0  0  0  0
   -3.3387  -51.0796   26.4696 C   0  0  2  0  0  0  0  0  0  0  0  0
   -3.4930  -49.6414   26.8665 C   0  0  0  0  0  0  0  0  0  0  0  0
   -4.4419  -48.7540   26.1167 C   0  0  0  0  0  0  0  0  0  0  0  0
    1.1224  -53.7784   23.8454 N   0  0  0  0  0  0  0  0  0  0  0  0
    1.0901  -53.1085   22.5037 C   0  0  0  0  0  0  0  0  0  0  0  0
    1.4800  -53.8736   21.2738 C   0  0  0  0  0  0  0  0  0  0  0  0
    1.4478  -53.2037   19.9321 C   0  0  0  0  0  0  0  0  0  0  0  0
    1.0256  -51.7686   19.8203 C   0  0  0  0  0  0  0  0  0  0  0  0
    0.9933  -51.0987   18.4786 F   0  0  0  0  0  0  0  0  0  0  0  0
    0.6358  -51.0036   21.0502 C   0  0  0  0  0  0  0  0  0  0  0  0
    0.2136  -49.5686   20.9383 Cl  0  0  0  0  0  0  0  0  0  0  0  0
    0.6680  -51.6735   22.3919 C   0  0  0  0  0  0  0  0  0  0  0  0
   -1.3869  -53.3253   24.9913 H   0  0  0  0  0  0  0  0  0  0  0  0
    2.3091  -51.1045   27.6465 H   0  0  0  0  0  0  0  0  0  0  0  0
   -2.7026  -52.4681   28.0069 H   0  0  0  0  0  0  0  0  0  0  0  0
   -6.6597  -48.9790   23.4425 H   0  0  0  0  0  0  0  0  0  0  0  0
   -5.6453  -47.5997   23.7911 H   0  0  0  0  0  0  0  0  0  0  0  0
   -6.9282  -48.0412   24.8921 H   0  0  0  0  0  0  0  0  0  0  0  0
   -5.4579  -48.9740   25.9091 H   0  0  0  0  0  0  0  0  0  0  0  0
   -4.7680  -50.7493   23.5502 H   0  0  0  0  0  0  0  0  0  0  0  0
   -6.0404  -51.1640   24.7957 H   0  0  0  0  0  0  0  0  0  0  0  0
   -3.4283  -52.0021   24.6088 H   0  0  0  0  0  0  0  0  0  0  0  0
   -4.7804  -52.3422   25.7914 H   0  0  0  0  0  0  0  0  0  0  0  0
   -3.4017  -50.8803   27.5190 H   0  0  0  0  0  0  0  0  0  0  0  0
   -2.5243  -49.1938   26.7883 H   0  0  0  0  0  0  0  0  0  0  0  0
   -3.9302  -49.7009   27.8413 H   0  0  0  0  0  0  0  0  0  0  0  0
   -3.8640  -47.9409   25.7297 H   0  0  0  0  0  0  0  0  0  0  0  0
   -5.1902  -48.5224   26.8457 H   0  0  0  0  0  0  0  0  0  0  0  0
    1.3606  -54.7312   23.9143 H   0  0  0  0  0  0  0  0  0  0  0  0
    1.7704  -54.8609   21.3507 H   0  0  0  0  0  0  0  0  0  0  0  0
    1.7161  -53.7301   19.0859 H   0  0  0  0  0  0  0  0  0  0  0  0
    0.3997  -51.1471   23.2381 H   0  0  0  0  0  0  0  0  0  0  0  0
  1  2  2  0  0  0  0
  2  3  1  0  0  0  0
  2 24  1  0  0  0  0
  3 15  1  0  0  0  0
  3  4  2  0  0  0  0
  4  5  1  0  0  0  0
  5  6  2  0  0  0  0
  5 25  1  0  0  0  0
  6  1  1  0  0  0  0
  7  1  1  0  0  0  0
  7 26  1  0  0  0  0
  8  9  1  0  0  0  0
  8 27  1  0  0  0  0
  8 28  1  0  0  0  0
  8 29  1  0  0  0  0
  9 10  1  0  0  0  0
  9 30  1  1  0  0  0
 10 11  1  0  0  0  0
 10 31  1  0  0  0  0
 10 32  1  0  0  0  0
 11 12  1  0  0  0  0
 11 33  1  0  0  0  0
 11 34  1  0  0  0  0
 12  7  1  0  0  0  0
 12 13  1  0  0  0  0
 12 35  1  1  0  0  0
 13 14  1  0  0  0  0
 13 36  1  0  0  0  0
 13 37  1  0  0  0  0
 14  9  1  0  0  0  0
 14 38  1  0  0  0  0
 14 39  1  0  0  0  0
 15 16  1  0  0  0  0
 15 40  1  0  0  0  0
 16 17  2  0  0  0  0
 17 18  1  0  0  0  0
 17 41  1  0  0  0  0
 18 19  2  0  0  0  0
 18 42  1  0  0  0  0
 19 20  1  0  0  0  0
 19 21  1  0  0  0  0
 21 22  1  0  0  0  0
 21 23  2  0  0  0  0
 23 16  1  0  0  0  0
 23 43  1  0  0  0  0
M  CHG  1   9   1
M  END
>  <minimizedAffinity>
-7.65839

$$$$

 OpenBabel09092411003D

 43 45  0  0  0  0  0  0  0  0999 V2000
   -1.7232  -52.2029   26.3137 C   0  0  0  0  0  0  0  0  0  0  0  0
   -0.8862  -51.5429   27.3692 N   0  0  0  0  0  0  0  0  0  0  0  0
    0.6103  -51.6009   27.2846 C   0  0  0  0  0  0  0  0  0  0  0  0
    1.2697  -52.3189   26.1446 C   0  0  0  0  0  0  0  0  0  0  0  0
    0.4328  -52.9789   25.0892 C   0  0  0  0  0  0  0  0  0  0  0  0
   -1.0638  -52.9208   25.1737 N   0  0  0  0  0  0  0  0  0  0  0  0
   -3.2197  -52.1448   26.3983 N   0  0  0  0  0  0  0  0  0  0  0  0
   -6.2416  -47.9963   23.2907 C   0  0  0  0  0  0  0  0  0  0  0  0
   -5.4861  -49.0334   24.0676 N   0  3  2  0  0  0  0  0  0  0  0  0
   -5.5795  -50.4786   23.6771 C   0  0  0  0  0  0  0  0  0  0  0  0
   -4.8240  -51.5158   24.4540 C   0  0  0  0  0  0  0  0  0  0  0  0
   -3.9752  -51.1077   25.6214 C   0  0  2  0  0  0  0  0  0  0  0  0
   -3.8818  -49.6624   26.0119 C   0  0  0  0  0  0  0  0  0  0  0  0
   -4.6373  -48.6253   25.2350 C   0  0  0  0  0  0  0  0  0  0  0  0
    1.0922  -53.6968   23.9492 N   0  0  0  0  0  0  0  0  0  0  0  0
    1.0682  -53.1007   22.5730 C   0  0  0  0  0  0  0  0  0  0  0  0
    1.3956  -53.9510   21.3814 C   0  0  0  0  0  0  0  0  0  0  0  0
    1.3716  -53.3549   20.0052 C   0  0  0  0  0  0  0  0  0  0  0  0
    1.0202  -51.9084   19.8205 C   0  0  0  0  0  0  0  0  0  0  0  0
    0.9962  -51.3122   18.4443 F   0  0  0  0  0  0  0  0  0  0  0  0
    0.6929  -51.0580   21.0119 C   0  0  0  0  0  0  0  0  0  0  0  0
    0.3415  -49.6115   20.8272 Cl  0  0  0  0  0  0  0  0  0  0  0  0
    0.7168  -51.6542   22.3882 C   0  0  0  0  0  0  0  0  0  0  0  0
    1.1862  -51.1468   28.0107 H   0  0  0  0  0  0  0  0  0  0  0  0
    2.2993  -52.3588   26.0864 H   0  0  0  0  0  0  0  0  0  0  0  0
   -3.7061  -52.7874   26.9638 H   0  0  0  0  0  0  0  0  0  0  0  0
   -6.7871  -48.4694   22.5010 H   0  0  0  0  0  0  0  0  0  0  0  0
   -5.5533  -47.2901   22.8755 H   0  0  0  0  0  0  0  0  0  0  0  0
   -6.9234  -47.4896   23.9414 H   0  0  0  0  0  0  0  0  0  0  0  0
   -4.5329  -48.7212   23.8822 H   0  0  0  0  0  0  0  0  0  0  0  0
   -5.2441  -50.5469   22.6633 H   0  0  0  0  0  0  0  0  0  0  0  0
   -6.6029  -50.7209   23.8740 H   0  0  0  0  0  0  0  0  0  0  0  0
   -4.1774  -52.0112   23.7602 H   0  0  0  0  0  0  0  0  0  0  0  0
   -5.5997  -52.0983   24.9056 H   0  0  0  0  0  0  0  0  0  0  0  0
   -4.8538  -51.4991   26.0902 H   0  0  0  0  0  0  0  0  0  0  0  0
   -2.8472  -49.3946   25.9597 H   0  0  0  0  0  0  0  0  0  0  0  0
   -4.3485  -49.6370   26.9744 H   0  0  0  0  0  0  0  0  0  0  0  0
   -3.9138  -47.9303   24.8629 H   0  0  0  0  0  0  0  0  0  0  0  0
   -5.3518  -48.2599   25.9427 H   0  0  0  0  0  0  0  0  0  0  0  0
    1.5408  -54.5593   24.1042 H   0  0  0  0  0  0  0  0  0  0  0  0
    1.6374  -54.9462   21.5085 H   0  0  0  0  0  0  0  0  0  0  0  0
    1.5968  -53.9400   19.1854 H   0  0  0  0  0  0  0  0  0  0  0  0
    0.4915  -51.0691   23.2079 H   0  0  0  0  0  0  0  0  0  0  0  0
  1  2  2  0  0  0  0
  2  3  1  0  0  0  0
  3  4  2  0  0  0  0
  3 24  1  0  0  0  0
  4  5  1  0  0  0  0
  4 25  1  0  0  0  0
  5 15  1  0  0  0  0
  5  6  2  0  0  0  0
  6  1  1  0  0  0  0
  7  1  1  0  0  0  0
  7 26  1  0  0  0  0
  8  9  1  0  0  0  0
  8 27  1  0  0  0  0
  8 28  1  0  0  0  0
  8 29  1  0  0  0  0
  9 10  1  0  0  0  0
  9 30  1  6  0  0  0
 10 11  1  0  0  0  0
 10 31  1  0  0  0  0
 10 32  1  0  0  0  0
 11 12  1  0  0  0  0
 11 33  1  0  0  0  0
 11 34  1  0  0  0  0
 12  7  1  0  0  0  0
 12 13  1  0  0  0  0
 12 35  1  1  0  0  0
 13 14  1  0  0  0  0
 13 36  1  0  0  0  0
 13 37  1  0  0  0  0
 14  9  1  0  0  0  0
 14 38  1  0  0  0  0
 14 39  1  0  0  0  0
 15 16  1  0  0  0  0
 15 40  1  0  0  0  0
 16 17  2  0  0  0  0
 17 18  1  0  0  0  0
 17 41  1  0  0  0  0
 18 19  2  0  0  0  0
 18 42  1  0  0  0  0
 19 20  1  0  0  0  0
 19 21  1  0  0  0  0
 21 22  1  0  0  0  0
 21 23  2  0  0  0  0
 23 16  1  0  0  0  0
 23 43  1  0  0  0  0
M  CHG  1   9   1
M  END
>  <minimizedAffinity>
-7.39220

$$$$

 OpenBabel09092411003D

 43 45  0  0  0  0  0  0  0  0999 V2000
   -0.4281  -52.3693   27.0148 C   0  0  0  0  0  0  0  0  0  0  0  0
    0.2126  -51.9772   28.3132 N   0  0  0  0  0  0  0  0  0  0  0  0
    1.6849  -51.6958   28.3681 C   0  0  0  0  0  0  0  0  0  0  0  0
    2.5166  -51.8065   27.1247 C   0  0  0  0  0  0  0  0  0  0  0  0
    1.8759  -52.1985   25.8263 N   0  0  0  0  0  0  0  0  0  0  0  0
    0.4035  -52.4800   25.7714 C   0  0  0  0  0  0  0  0  0  0  0  0
   -1.9004  -52.6507   26.9599 N   0  0  0  0  0  0  0  0  0  0  0  0
   -5.6675  -48.5109   24.7986 C   0  0  0  0  0  0  0  0  0  0  0  0
   -4.7257  -49.5458   25.3389 N   0  3  2  0  0  0  0  0  0  0  0  0
   -4.5972  -50.8738   24.6534 C   0  0  0  0  0  0  0  0  0  0  0  0
   -3.6555  -51.9088   25.1937 C   0  0  0  0  0  0  0  0  0  0  0  0
   -2.8422  -51.6158   26.4195 C   0  0  1  0  0  0  0  0  0  0  0  0
   -2.9707  -50.2878   27.1051 C   0  0  0  0  0  0  0  0  0  0  0  0
   -3.9125  -49.2528   26.5647 C   0  0  0  0  0  0  0  0  0  0  0  0
   -0.2371  -52.8720   24.4730 N   0  0  0  0  0  0  0  0  0  0  0  0
    0.0306  -52.0719   23.2328 C   0  0  0  0  0  0  0  0  0  0  0  0
   -0.5843  -50.7136   23.0693 C   0  0  0  0  0  0  0  0  0  0  0  0
   -0.3166  -49.9134   21.8291 C   0  0  0  0  0  0  0  0  0  0  0  0
    0.5661  -50.4716   20.7524 C   0  0  0  0  0  0  0  0  0  0  0  0
    0.8338  -49.6715   19.5122 F   0  0  0  0  0  0  0  0  0  0  0  0
    1.1810  -51.8299   20.9159 C   0  0  0  0  0  0  0  0  0  0  0  0
    2.0637  -52.3882   19.8392 Cl  0  0  0  0  0  0  0  0  0  0  0  0
    0.9132  -52.6301   22.1561 C   0  0  0  0  0  0  0  0  0  0  0  0
    2.1257  -51.4260   29.2614 H   0  0  0  0  0  0  0  0  0  0  0  0
    3.5296  -51.6130   27.1625 H   0  0  0  0  0  0  0  0  0  0  0  0
   -2.2486  -53.5147   27.2786 H   0  0  0  0  0  0  0  0  0  0  0  0
   -6.1573  -48.8942   23.9279 H   0  0  0  0  0  0  0  0  0  0  0  0
   -5.1187  -47.6295   24.5401 H   0  0  0  0  0  0  0  0  0  0  0  0
   -6.3983  -48.2708   25.5423 H   0  0  0  0  0  0  0  0  0  0  0  0
   -4.1326  -48.9689   24.7423 H   0  0  0  0  0  0  0  0  0  0  0  0
   -4.2923  -50.6739   23.6474 H   0  0  0  0  0  0  0  0  0  0  0  0
   -5.5598  -51.3186   24.7965 H   0  0  0  0  0  0  0  0  0  0  0  0
   -2.9628  -52.1352   24.4102 H   0  0  0  0  0  0  0  0  0  0  0  0
   -4.3093  -52.6929   25.5140 H   0  0  0  0  0  0  0  0  0  0  0  0
   -2.6837  -52.0177   25.4406 H   0  0  0  0  0  0  0  0  0  0  0  0
   -1.9959  -49.8465   27.1089 H   0  0  0  0  0  0  0  0  0  0  0  0
   -3.3999  -50.5404   28.0521 H   0  0  0  0  0  0  0  0  0  0  0  0
   -3.3256  -48.3853   26.3459 H   0  0  0  0  0  0  0  0  0  0  0  0
   -4.6506  -49.1660   27.3345 H   0  0  0  0  0  0  0  0  0  0  0  0
   -0.8333  -53.6545   24.4348 H   0  0  0  0  0  0  0  0  0  0  0  0
   -1.1916  -50.3296   23.8101 H   0  0  0  0  0  0  0  0  0  0  0  0
   -0.7397  -48.9789   21.7166 H   0  0  0  0  0  0  0  0  0  0  0  0
    1.3362  -53.5647   22.2685 H   0  0  0  0  0  0  0  0  0  0  0  0
  1  2  2  0  0  0  0
  2  3  1  0  0  0  0
  3  4  2  0  0  0  0
  3 24  1  0  0  0  0
  4  5  1  0  0  0  0
  4 25  1  0  0  0  0
  5  6  2  0  0  0  0
  6 15  1  0  0  0  0
  6  1  1  0  0  0  0
  7  1  1  0  0  0  0
  7 26  1  0  0  0  0
  8  9  1  0  0  0  0
  8 27  1  0  0  0  0
  8 28  1  0  0  0  0
  8 29  1  0  0  0  0
  9 10  1  0  0  0  0
  9 30  1  6  0  0  0
 10 11  1  0  0  0  0
 10 31  1  0  0  0  0
 10 32  1  0  0  0  0
 11 12  1  0  0  0  0
 11 33  1  0  0  0  0
 11 34  1  0  0  0  0
 12  7  1  0  0  0  0
 12 13  1  0  0  0  0
 12 35  1  6  0  0  0
 13 14  1  0  0  0  0
 13 36  1  0  0  0  0
 13 37  1  0  0  0  0
 14  9  1  0  0  0  0
 14 38  1  0  0  0  0
 14 39  1  0  0  0  0
 15 16  1  0  0  0  0
 15 40  1  0  0  0  0
 16 17  2  0  0  0  0
 17 18  1  0  0  0  0
 17 41  1  0  0  0  0
 18 19  2  0  0  0  0
 18 42  1  0  0  0  0
 19 20  1  0  0  0  0
 19 21  1  0  0  0  0
 21 22  1  0  0  0  0
 21 23  2  0  0  0  0
 23 16  1  0  0  0  0
 23 43  1  0  0  0  0
M  CHG  1   9   1
M  END
>  <minimizedAffinity>
-7.48352

$$$$

 OpenBabel09092411003D

 43 45  0  0  0  0  0  0  0  0999 V2000
    0.8329  -52.7640   24.8904 C   0  0  0  0  0  0  0  0  0  0  0  0
    2.0972  -52.2034   25.4712 N   0  0  0  0  0  0  0  0  0  0  0  0
    2.0512  -51.4126   26.7450 C   0  0  0  0  0  0  0  0  0  0  0  0
    0.7410  -51.1824   27.4379 N   0  0  0  0  0  0  0  0  0  0  0  0
   -0.5233  -51.7429   26.8572 C   0  0  0  0  0  0  0  0  0  0  0  0
   -0.4774  -52.5338   25.5833 C   0  0  0  0  0  0  0  0  0  0  0  0
    0.8789  -53.5547   23.6166 N   0  0  0  0  0  0  0  0  0  0  0  0
    0.7031  -50.7320   18.3250 C   0  0  0  0  0  0  0  0  0  0  0  0
    0.7471  -51.4377   19.6479 N   0  3  1  0  0  0  0  0  0  0  0  0
    0.6887  -50.6477   20.9216 C   0  0  0  0  0  0  0  0  0  0  0  0
    0.7326  -51.3534   22.2445 C   0  0  0  0  0  0  0  0  0  0  0  0
    0.8349  -52.8490   22.2937 C   0  0  1  0  0  0  0  0  0  0  0  0
    0.8934  -53.6390   21.0199 C   0  0  0  0  0  0  0  0  0  0  0  0
    0.8494  -52.9333   19.6970 C   0  0  0  0  0  0  0  0  0  0  0  0
   -1.7416  -53.0943   25.0026 N   0  0  0  0  0  0  0  0  0  0  0  0
   -2.7596  -52.1755   24.3947 C   0  0  0  0  0  0  0  0  0  0  0  0
   -3.9016  -51.6677   25.2240 C   0  0  0  0  0  0  0  0  0  0  0  0
   -4.9196  -50.7489   24.6162 C   0  0  0  0  0  0  0  0  0  0  0  0
   -4.7956  -50.3379   23.1790 C   0  0  0  0  0  0  0  0  0  0  0  0
   -5.8136  -49.4191   22.5711 F   0  0  0  0  0  0  0  0  0  0  0  0
   -3.6536  -50.8457   22.3496 C   0  0  0  0  0  0  0  0  0  0  0  0
   -3.5295  -50.4347   20.9123 Cl  0  0  0  0  0  0  0  0  0  0  0  0
   -2.6356  -51.7645   22.9575 C   0  0  0  0  0  0  0  0  0  0  0  0
    2.9210  -51.0269   27.1446 H   0  0  0  0  0  0  0  0  0  0  0  0
   -1.4247  -51.5845   27.3340 H   0  0  0  0  0  0  0  0  0  0  0  0
    0.9380  -54.5369   23.6488 H   0  0  0  0  0  0  0  0  0  0  0  0
    0.6303  -49.6767   18.4860 H   0  0  0  0  0  0  0  0  0  0  0  0
   -0.1478  -51.0677   17.7698 H   0  0  0  0  0  0  0  0  0  0  0  0
    1.5954  -50.9482   17.7755 H   0  0  0  0  0  0  0  0  0  0  0  0
    1.6466  -51.7017   20.0499 H   0  0  0  0  0  0  0  0  0  0  0  0
   -0.2250  -50.0914   20.8984 H   0  0  0  0  0  0  0  0  0  0  0  0
    1.6032  -50.0923   20.9087 H   0  0  0  0  0  0  0  0  0  0  0  0
   -0.1631  -51.0877   22.7662 H   0  0  0  0  0  0  0  0  0  0  0  0
    1.6615  -51.0294   22.6653 H   0  0  0  0  0  0  0  0  0  0  0  0
   -0.1466  -52.9285   22.7124 H   0  0  0  0  0  0  0  0  0  0  0  0
    0.0640  -54.3148   21.0372 H   0  0  0  0  0  0  0  0  0  0  0  0
    1.8750  -54.0644   21.0392 H   0  0  0  0  0  0  0  0  0  0  0  0
    0.0018  -53.3184   19.1695 H   0  0  0  0  0  0  0  0  0  0  0  0
    1.8165  -53.1274   19.2824 H   0  0  0  0  0  0  0  0  0  0  0  0
   -1.9033  -54.0653   25.0204 H   0  0  0  0  0  0  0  0  0  0  0  0
   -3.9869  -51.9505   26.2128 H   0  0  0  0  0  0  0  0  0  0  0  0
   -5.7053  -50.3995   25.1869 H   0  0  0  0  0  0  0  0  0  0  0  0
   -1.8499  -52.1139   22.3869 H   0  0  0  0  0  0  0  0  0  0  0  0
  1  2  2  0  0  0  0
  2  3  1  0  0  0  0
  3  4  2  0  0  0  0
  3 24  1  0  0  0  0
  4  5  1  0  0  0  0
  5  6  2  0  0  0  0
  5 25  1  0  0  0  0
  6 15  1  0  0  0  0
  6  1  1  0  0  0  0
  7  1  1  0  0  0  0
  7 26  1  0  0  0  0
  8  9  1  0  0  0  0
  8 27  1  0  0  0  0
  8 28  1  0  0  0  0
  8 29  1  0  0  0  0
  9 10  1  0  0  0  0
  9 30  1  1  0  0  0
 10 11  1  0  0  0  0
 10 31  1  0  0  0  0
 10 32  1  0  0  0  0
 11 12  1  0  0  0  0
 11 33  1  0  0  0  0
 11 34  1  0  0  0  0
 12  7  1  0  0  0  0
 12 13  1  0  0  0  0
 12 35  1  6  0  0  0
 13 14  1  0  0  0  0
 13 36  1  0  0  0  0
 13 37  1  0  0  0  0
 14  9  1  0  0  0  0
 14 38  1  0  0  0  0
 14 39  1  0  0  0  0
 15 16  1  0  0  0  0
 15 40  1  0  0  0  0
 16 17  2  0  0  0  0
 17 18  1  0  0  0  0
 17 41  1  0  0  0  0
 18 19  2  0  0  0  0
 18 42  1  0  0  0  0
 19 20  1  0  0  0  0
 19 21  1  0  0  0  0
 21 22  1  0  0  0  0
 21 23  2  0  0  0  0
 23 16  1  0  0  0  0
 23 43  1  0  0  0  0
M  CHG  1   9   1
M  END
>  <minimizedAffinity>
-7.27075

$$$$

 OpenBabel09092411003D

 42 44  0  0  0  0  0  0  0  0999 V2000
   -1.3151  -52.3598   26.6613 C   0  0  0  0  0  0  0  0  0  0  0  0
   -0.3355  -51.7515   27.6208 N   0  0  0  0  0  0  0  0  0  0  0  0
    1.1370  -51.8494   27.3520 C   0  0  0  0  0  0  0  0  0  0  0  0
    1.6299  -52.5555   26.1239 N   0  0  0  0  0  0  0  0  0  0  0  0
    0.6504  -53.1638   25.1645 C   0  0  0  0  0  0  0  0  0  0  0  0
   -0.8221  -53.0660   25.4332 N   0  0  0  0  0  0  0  0  0  0  0  0
   -2.7875  -52.2620   26.9301 N   0  0  0  0  0  0  0  0  0  0  0  0
   -6.0377  -47.9586   24.3001 C   0  0  0  0  0  0  0  0  0  0  0  0
   -5.2252  -49.0344   24.9576 N   0  3  1  0  0  0  0  0  0  0  0  0
   -5.2469  -50.4309   24.4105 C   0  0  0  0  0  0  0  0  0  0  0  0
   -4.4343  -51.5067   25.0680 C   0  0  0  0  0  0  0  0  0  0  0  0
   -3.6000  -51.1861   26.2726 C   0  0  1  0  0  0  0  0  0  0  0  0
   -3.5783  -49.7897   26.8197 C   0  0  0  0  0  0  0  0  0  0  0  0
   -4.3909  -48.7138   26.1622 C   0  0  0  0  0  0  0  0  0  0  0  0
    1.1434  -53.8699   23.9363 N   0  0  0  0  0  0  0  0  0  0  0  0
    1.0668  -53.1926   22.6001 C   0  0  0  0  0  0  0  0  0  0  0  0
    1.4201  -53.9496   21.3542 C   0  0  0  0  0  0  0  0  0  0  0  0
    1.3435  -53.2723   20.0181 C   0  0  0  0  0  0  0  0  0  0  0  0
    0.9136  -51.8381   19.9277 C   0  0  0  0  0  0  0  0  0  0  0  0
    0.8370  -51.1608   18.5916 F   0  0  0  0  0  0  0  0  0  0  0  0
    0.5603  -51.0811   21.1736 C   0  0  0  0  0  0  0  0  0  0  0  0
    0.1303  -49.6469   21.0832 Cl  0  0  0  0  0  0  0  0  0  0  0  0
    0.6369  -51.7584   22.5098 C   0  0  0  0  0  0  0  0  0  0  0  0
    1.8109  -51.4309   28.0121 H   0  0  0  0  0  0  0  0  0  0  0  0
   -3.2206  -52.9039   27.5380 H   0  0  0  0  0  0  0  0  0  0  0  0
   -6.5633  -48.3695   23.4636 H   0  0  0  0  0  0  0  0  0  0  0  0
   -5.3891  -47.1765   23.9646 H   0  0  0  0  0  0  0  0  0  0  0  0
   -6.7403  -47.5623   25.0031 H   0  0  0  0  0  0  0  0  0  0  0  0
   -6.1155  -48.5370   24.9748 H   0  0  0  0  0  0  0  0  0  0  0  0
   -4.9149  -50.3700   23.3951 H   0  0  0  0  0  0  0  0  0  0  0  0
   -6.2553  -50.7459   24.5803 H   0  0  0  0  0  0  0  0  0  0  0  0
   -3.7677  -51.8889   24.3234 H   0  0  0  0  0  0  0  0  0  0  0  0
   -5.1762  -52.1745   25.4534 H   0  0  0  0  0  0  0  0  0  0  0  0
   -2.5390  -51.0527   26.2364 H   0  0  0  0  0  0  0  0  0  0  0  0
   -2.5591  -49.4647   26.7966 H   0  0  0  0  0  0  0  0  0  0  0  0
   -4.0396  -49.8944   27.7795 H   0  0  0  0  0  0  0  0  0  0  0  0
   -3.7064  -47.9457   25.8683 H   0  0  0  0  0  0  0  0  0  0  0  0
   -5.1186  -48.4657   26.9064 H   0  0  0  0  0  0  0  0  0  0  0  0
    1.5173  -54.7779   24.0072 H   0  0  0  0  0  0  0  0  0  0  0  0
    1.7159  -54.9364   21.4163 H   0  0  0  0  0  0  0  0  0  0  0  0
    1.5866  -53.7931   19.1609 H   0  0  0  0  0  0  0  0  0  0  0  0
    0.3938  -51.2376   23.3670 H   0  0  0  0  0  0  0  0  0  0  0  0
  1  2  2  0  0  0  0
  2  3  1  0  0  0  0
  3  4  2  0  0  0  0
  3 24  1  0  0  0  0
  4  5  1  0  0  0  0
  5 15  1  0  0  0  0
  5  6  2  0  0  0  0
  6  1  1  0  0  0  0
  7  1  1  0  0  0  0
  7 25  1  0  0  0  0
  8  9  1  0  0  0  0
  8 26  1  0  0  0  0
  8 27  1  0  0  0  0
  8 28  1  0  0  0  0
  9 10  1  0  0  0  0
  9 29  1  1  0  0  0
 10 11  1  0  0  0  0
 10 30  1  0  0  0  0
 10 31  1  0  0  0  0
 11 12  1  0  0  0  0
 11 32  1  0  0  0  0
 11 33  1  0  0  0  0
 12  7  1  0  0  0  0
 12 13  1  0  0  0  0
 12 34  1  6  0  0  0
 13 14  1  0  0  0  0
 13 35  1  0  0  0  0
 13 36  1  0  0  0  0
 14  9  1  0  0  0  0
 14 37  1  0  0  0  0
 14 38  1  0  0  0  0
 15 16  1  0  0  0  0
 15 39  1  0  0  0  0
 16 17  2  0  0  0  0
 17 18  1  0  0  0  0
 17 40  1  0  0  0  0
 18 19  2  0  0  0  0
 18 41  1  0  0  0  0
 19 20  1  0  0  0  0
 19 21  1  0  0  0  0
 21 22  1  0  0  0  0
 21 23  2  0  0  0  0
 23 16  1  0  0  0  0
 23 42  1  0  0  0  0
M  CHG  1   9   1
M  END
>  <minimizedAffinity>
-7.81240

$$$$

 OpenBabel09092411003D

 45 47  0  0  0  0  0  0  0  0999 V2000
   -1.0670  -50.5841   22.1886 C   0  0  0  0  0  0  0  0  0  0  0  0
   -2.2874  -49.8507   21.7164 C   0  0  0  0  0  0  0  0  0  0  0  0
   -3.6387  -50.2198   22.2527 C   0  0  0  0  0  0  0  0  0  0  0  0
   -3.7698  -51.3225   23.2611 C   0  0  0  0  0  0  0  0  0  0  0  0
   -5.1212  -51.6917   23.7974 Cl  0  0  0  0  0  0  0  0  0  0  0  0
   -2.5495  -52.0560   23.7333 C   0  0  0  0  0  0  0  0  0  0  0  0
   -1.1981  -51.6868   23.1971 C   0  0  0  0  0  0  0  0  0  0  0  0
    0.2843  -50.2149   21.6524 N   0  0  0  0  0  0  0  0  0  0  0  0
    1.6610  -51.8590   17.6962 C   0  0  0  0  0  0  0  0  0  0  0  0
    1.9529  -52.6085   18.9622 C   0  0  0  0  0  0  0  0  0  0  0  0
    1.4939  -52.0605   20.2810 C   0  0  0  0  0  0  0  0  0  0  0  0
    0.7432  -50.7629   20.3336 C   0  0  0  0  0  0  0  0  0  0  0  0
    0.4514  -50.0134   19.0675 C   0  0  0  0  0  0  0  0  0  0  0  0
    0.9103  -50.5614   17.7488 C   0  0  0  0  0  0  0  0  0  0  0  0
    0.6185  -49.8119   16.4827 F   0  0  0  0  0  0  0  0  0  0  0  0
    3.5634  -52.3020   15.9830 C   0  0  0  0  0  0  0  0  0  0  0  0
    2.1200  -52.4070   16.3774 O   0  0  0  0  0  0  0  0  0  0  0  0
    0.0221  -52.4203   23.6692 C   0  0  0  0  0  0  0  0  0  0  0  0
    0.3252  -52.5057   25.1358 N   0  3  0  0  0  0  0  0  0  0  0  0
    1.0290  -51.3735   25.8234 C   0  0  0  0  0  0  0  0  0  0  0  0
    1.3321  -51.4590   27.2900 C   0  0  0  0  0  0  0  0  0  0  0  0
    0.9314  -52.6766   28.0690 O   0  0  0  0  0  0  0  0  0  0  0  0
    0.2276  -53.8087   27.3814 C   0  0  0  0  0  0  0  0  0  0  0  0
   -0.0755  -53.7233   25.9148 C   0  0  0  0  0  0  0  0  0  0  0  0
   -2.1973  -49.0921   21.0225 H   0  0  0  0  0  0  0  0  0  0  0  0
   -4.4782  -49.7151   21.9279 H   0  0  0  0  0  0  0  0  0  0  0  0
   -2.6397  -52.8147   24.4271 H   0  0  0  0  0  0  0  0  0  0  0  0
    0.8700  -49.6129   22.1660 H   0  0  0  0  0  0  0  0  0  0  0  0
    2.4695  -53.5012   18.9260 H   0  0  0  0  0  0  0  0  0  0  0  0
    1.6946  -52.5762   21.1521 H   0  0  0  0  0  0  0  0  0  0  0  0
   -0.0651  -49.1207   19.1037 H   0  0  0  0  0  0  0  0  0  0  0  0
    3.7025  -52.7434   15.0183 H   0  0  0  0  0  0  0  0  0  0  0  0
    4.1676  -52.8162   16.7009 H   0  0  0  0  0  0  0  0  0  0  0  0
    3.8497  -51.2716   15.9485 H   0  0  0  0  0  0  0  0  0  0  0  0
    0.8641  -51.9490   23.2067 H   0  0  0  0  0  0  0  0  0  0  0  0
   -0.1821  -53.4357   23.4007 H   0  0  0  0  0  0  0  0  0  0  0  0
    0.3211  -52.0641   24.2164 H   0  0  0  0  0  0  0  0  0  0  0  0
    0.4232  -50.5027   25.6834 H   0  0  0  0  0  0  0  0  0  0  0  0
    1.9988  -51.3759   25.3713 H   0  0  0  0  0  0  0  0  0  0  0  0
    0.8512  -50.6234   27.7540 H   0  0  0  0  0  0  0  0  0  0  0  0
    2.4013  -51.4895   27.3188 H   0  0  0  0  0  0  0  0  0  0  0  0
   -0.7083  -53.9408   27.8830 H   0  0  0  0  0  0  0  0  0  0  0  0
    0.9346  -54.6097   27.4402 H   0  0  0  0  0  0  0  0  0  0  0  0
   -1.1362  -53.8202   25.8124 H   0  0  0  0  0  0  0  0  0  0  0  0
    0.5321  -54.4963   25.4927 H   0  0  0  0  0  0  0  0  0  0  0  0
  1  2  2  0  0  0  0
  2  3  1  0  0  0  0
  2 25  1  0  0  0  0
  3  4  2  0  0  0  0
  3 26  1  0  0  0  0
  4  5  1  0  0  0  0
  4  6  1  0  0  0  0
  6  7  2  0  0  0  0
  6 27  1  0  0  0  0
  7 18  1  0  0  0  0
  7  1  1  0  0  0  0
  8  1  1  0  0  0  0
  8 28  1  0  0  0  0
  9 10  2  0  0  0  0
 10 11  1  0  0  0  0
 10 29  1  0  0  0  0
 11 12  2  0  0  0  0
 11 30  1  0  0  0  0
 12  8  1  0  0  0  0
 12 13  1  0  0  0  0
 13 14  2  0  0  0  0
 13 31  1  0  0  0  0
 14 15  1  0  0  0  0
 14  9  1  0  0  0  0
 16 17  1  0  0  0  0
 16 32  1  0  0  0  0
 16 33  1  0  0  0  0
 16 34  1  0  0  0  0
 17  9  1  0  0  0  0
 18 19  1  0  0  0  0
 18 35  1  0  0  0  0
 18 36  1  0  0  0  0
 19 20  1  0  0  0  0
 19 37  1  0  0  0  0
 20 21  1  0  0  0  0
 20 38  1  0  0  0  0
 20 39  1  0  0  0  0
 21 22  1  0  0  0  0
 21 40  1  0  0  0  0
 21 41  1  0  0  0  0
 22 23  1  0  0  0  0
 23 24  1  0  0  0  0
 23 42  1  0  0  0  0
 23 43  1  0  0  0  0
 24 19  1  0  0  0  0
 24 44  1  0  0  0  0
 24 45  1  0  0  0  0
M  CHG  1  19   1
M  END
>  <minimizedAffinity>
-7.45275

$$$$

 OpenBabel09092411003D

 44 46  0  0  0  0  0  0  0  0999 V2000
   -0.3535  -51.9056   21.9756 C   0  0  0  0  0  0  0  0  0  0  0  0
   -0.2461  -51.6871   20.4954 C   0  0  0  0  0  0  0  0  0  0  0  0
   -1.3755  -51.0416   19.7487 C   0  0  0  0  0  0  0  0  0  0  0  0
   -2.6124  -50.6146   20.4821 C   0  0  0  0  0  0  0  0  0  0  0  0
   -3.7419  -49.9690   19.7353 F   0  0  0  0  0  0  0  0  0  0  0  0
   -2.7198  -50.8331   21.9621 C   0  0  0  0  0  0  0  0  0  0  0  0
   -1.5903  -51.4787   22.7089 C   0  0  0  0  0  0  0  0  0  0  0  0
    0.7760  -52.5512   22.7223 N   0  0  0  0  0  0  0  0  0  0  0  0
    0.9998  -52.2064   28.7082 F   0  0  0  0  0  0  0  0  0  0  0  0
    0.9439  -52.2926   27.2117 C   0  0  0  0  0  0  0  0  0  0  0  0
    1.4514  -51.1555   26.3755 C   0  0  0  0  0  0  0  0  0  0  0  0
    1.3954  -51.2417   24.8790 C   0  0  0  0  0  0  0  0  0  0  0  0
    0.8319  -52.4650   24.2188 C   0  0  0  0  0  0  0  0  0  0  0  0
    0.3244  -53.6021   25.0550 C   0  0  0  0  0  0  0  0  0  0  0  0
    0.3804  -53.5159   26.5515 C   0  0  0  0  0  0  0  0  0  0  0  0
   -0.1272  -54.6531   27.3877 Cl  0  0  0  0  0  0  0  0  0  0  0  0
   -3.9567  -50.4061   22.6955 C   0  0  0  0  0  0  0  0  0  0  0  0
   -4.4463  -51.2034   23.8680 C   0  0  0  0  0  0  0  0  0  0  0  0
   -3.9441  -50.8945   25.2473 N   0  3  0  0  0  0  0  0  0  0  0  0
   -3.2721  -51.9632   26.0576 C   0  0  0  0  0  0  0  0  0  0  0  0
   -2.7699  -51.6542   27.4368 C   0  0  0  0  0  0  0  0  0  0  0  0
   -2.9396  -50.2767   28.0057 O   0  0  0  0  0  0  0  0  0  0  0  0
   -3.6115  -49.2081   27.1954 C   0  0  0  0  0  0  0  0  0  0  0  0
   -4.1137  -49.5170   25.8162 C   0  0  0  0  0  0  0  0  0  0  0  0
    0.6049  -51.9809   19.9908 H   0  0  0  0  0  0  0  0  0  0  0  0
   -1.3016  -50.8912   18.7304 H   0  0  0  0  0  0  0  0  0  0  0  0
   -1.6642  -51.6291   23.7272 H   0  0  0  0  0  0  0  0  0  0  0  0
    1.4806  -53.0315   22.2302 H   0  0  0  0  0  0  0  0  0  0  0  0
    1.8391  -50.3138   26.8297 H   0  0  0  0  0  0  0  0  0  0  0  0
    1.7446  -50.4593   24.3037 H   0  0  0  0  0  0  0  0  0  0  0  0
   -0.0633  -54.4438   24.6008 H   0  0  0  0  0  0  0  0  0  0  0  0
   -4.7511  -50.3911   21.9788 H   0  0  0  0  0  0  0  0  0  0  0  0
   -3.6725  -49.4725   23.1343 H   0  0  0  0  0  0  0  0  0  0  0  0
   -4.1993  -52.2257   23.6711 H   0  0  0  0  0  0  0  0  0  0  0  0
   -5.4844  -50.9497   23.9217 H   0  0  0  0  0  0  0  0  0  0  0  0
   -4.7830  -50.8965   25.8275 H   0  0  0  0  0  0  0  0  0  0  0  0
   -2.4292  -52.2974   25.4896 H   0  0  0  0  0  0  0  0  0  0  0  0
   -4.0572  -52.6685   26.2339 H   0  0  0  0  0  0  0  0  0  0  0  0
   -1.7201  -51.8612   27.4368 H   0  0  0  0  0  0  0  0  0  0  0  0
   -3.3904  -52.2581   28.0655 H   0  0  0  0  0  0  0  0  0  0  0  0
   -2.9083  -48.4077   27.0960 H   0  0  0  0  0  0  0  0  0  0  0  0
   -4.5080  -49.0098   27.7449 H   0  0  0  0  0  0  0  0  0  0  0  0
   -3.6173  -48.8439   25.1488 H   0  0  0  0  0  0  0  0  0  0  0  0
   -5.1749  -49.4200   25.9134 H   0  0  0  0  0  0  0  0  0  0  0  0
  1  2  2  0  0  0  0
  2  3  1  0  0  0  0
  2 25  1  0  0  0  0
  3  4  2  0  0  0  0
  3 26  1  0  0  0  0
  4  5  1  0  0  0  0
  4  6  1  0  0  0  0
  6 17  1  0  0  0  0
  6  7  2  0  0  0  0
  7  1  1  0  0  0  0
  7 27  1  0  0  0  0
  8  1  1  0  0  0  0
  8 28  1  0  0  0  0
  9 10  1  0  0  0  0
 10 11  2  0  0  0  0
 11 12  1  0  0  0  0
 11 29  1  0  0  0  0
 12 13  2  0  0  0  0
 12 30  1  0  0  0  0
 13  8  1  0  0  0  0
 13 14  1  0  0  0  0
 14 15  2  0  0  0  0
 14 31  1  0  0  0  0
 15 16  1  0  0  0  0
 15 10  1  0  0  0  0
 17 18  1  0  0  0  0
 17 32  1  0  0  0  0
 17 33  1  0  0  0  0
 18 19  1  0  0  0  0
 18 34  1  0  0  0  0
 18 35  1  0  0  0  0
 19 20  1  0  0  0  0
 19 36  1  0  0  0  0
 20 21  1  0  0  0  0
 20 37  1  0  0  0  0
 20 38  1  0  0  0  0
 21 22  1  0  0  0  0
 21 39  1  0  0  0  0
 21 40  1  0  0  0  0
 22 23  1  0  0  0  0
 23 24  1  0  0  0  0
 23 41  1  0  0  0  0
 23 42  1  0  0  0  0
 24 19  1  0  0  0  0
 24 43  1  0  0  0  0
 24 44  1  0  0  0  0
M  CHG  1  19   1
M  END
>  <minimizedAffinity>
-7.52647

$$$$

 OpenBabel09092411003D

 47 49  0  0  0  0  0  0  0  0999 V2000
    1.2923  -53.8285   23.4095 C   0  0  0  0  0  0  0  0  0  0  0  0
    0.6741  -54.8447   24.3235 C   0  0  0  0  0  0  0  0  0  0  0  0
    0.2275  -54.4436   25.6982 C   0  0  0  0  0  0  0  0  0  0  0  0
    0.3992  -53.0264   26.1589 C   0  0  0  0  0  0  0  0  0  0  0  0
    1.0173  -52.0103   25.2449 C   0  0  0  0  0  0  0  0  0  0  0  0
    1.1890  -50.5931   25.7056 F   0  0  0  0  0  0  0  0  0  0  0  0
    1.4639  -52.4114   23.8702 C   0  0  0  0  0  0  0  0  0  0  0  0
    1.7389  -54.2296   22.0349 N   0  0  0  0  0  0  0  0  0  0  0  0
    2.8763  -52.4791   17.2765 C   0  0  0  0  0  0  0  0  0  0  0  0
    1.9770  -52.4875   18.4770 C   0  0  0  0  0  0  0  0  0  0  0  0
    2.3076  -53.3543   19.6556 N   0  0  0  0  0  0  0  0  0  0  0  0
    1.4083  -53.3627   20.8562 C   0  0  0  0  0  0  0  0  0  0  0  0
    0.1785  -52.5042   20.8781 C   0  0  0  0  0  0  0  0  0  0  0  0
   -0.1521  -51.6373   19.6994 C   0  0  0  0  0  0  0  0  0  0  0  0
    0.7472  -51.6290   18.4989 C   0  0  0  0  0  0  0  0  0  0  0  0
    0.4166  -50.7621   17.3202 Cl  0  0  0  0  0  0  0  0  0  0  0  0
   -0.0474  -52.6253   27.5336 O   0  0  0  0  0  0  0  0  0  0  0  0
   -1.4657  -52.8628   27.9605 C   0  0  0  0  0  0  0  0  0  0  0  0
   -2.5665  -51.9998   27.4188 C   0  0  0  0  0  0  0  0  0  0  0  0
   -2.4175  -51.3494   26.0754 N   0  3  0  0  0  0  0  0  0  0  0  0
   -2.7142  -52.1281   24.8282 C   0  0  0  0  0  0  0  0  0  0  0  0
   -2.5653  -51.4777   23.4847 C   0  0  0  0  0  0  0  0  0  0  0  0
   -2.1196  -50.0487   23.3885 O   0  0  0  0  0  0  0  0  0  0  0  0
   -1.8229  -49.2700   24.6358 C   0  0  0  0  0  0  0  0  0  0  0  0
   -1.9719  -49.9204   25.9792 C   0  0  0  0  0  0  0  0  0  0  0  0
    0.5561  -55.8197   24.0066 H   0  0  0  0  0  0  0  0  0  0  0  0
   -0.1979  -55.1426   26.3270 H   0  0  0  0  0  0  0  0  0  0  0  0
    1.8892  -51.7123   23.2414 H   0  0  0  0  0  0  0  0  0  0  0  0
    2.2490  -55.0618   21.9063 H   0  0  0  0  0  0  0  0  0  0  0  0
    3.6960  -53.1471   17.4402 H   0  0  0  0  0  0  0  0  0  0  0  0
    3.2494  -51.4890   17.1173 H   0  0  0  0  0  0  0  0  0  0  0  0
    2.3250  -52.7952   16.4157 H   0  0  0  0  0  0  0  0  0  0  0  0
   -0.4402  -52.5099   21.7041 H   0  0  0  0  0  0  0  0  0  0  0  0
   -0.9982  -51.0466   19.7144 H   0  0  0  0  0  0  0  0  0  0  0  0
   -1.4889  -52.7609   29.0254 H   0  0  0  0  0  0  0  0  0  0  0  0
   -1.6867  -53.8275   27.5538 H   0  0  0  0  0  0  0  0  0  0  0  0
   -2.7194  -51.2130   28.1277 H   0  0  0  0  0  0  0  0  0  0  0  0
   -3.3699  -52.6906   27.2698 H   0  0  0  0  0  0  0  0  0  0  0  0
   -1.6344  -50.7023   26.1668 H   0  0  0  0  0  0  0  0  0  0  0  0
   -3.7304  -52.4547   24.9024 H   0  0  0  0  0  0  0  0  0  0  0  0
   -1.9546  -52.8817   24.8222 H   0  0  0  0  0  0  0  0  0  0  0  0
   -3.5202  -51.5363   23.0056 H   0  0  0  0  0  0  0  0  0  0  0  0
   -1.7569  -52.0181   23.0381 H   0  0  0  0  0  0  0  0  0  0  0  0
   -2.4721  -48.4194   24.6307 H   0  0  0  0  0  0  0  0  0  0  0  0
   -0.7710  -49.0864   24.5667 H   0  0  0  0  0  0  0  0  0  0  0  0
   -2.6825  -49.3377   26.5274 H   0  0  0  0  0  0  0  0  0  0  0  0
   -0.9689  -49.9500   26.3507 H   0  0  0  0  0  0  0  0  0  0  0  0
  1  2  2  0  0  0  0
  2  3  1  0  0  0  0
  2 26  1  0  0  0  0
  3  4  2  0  0  0  0
  3 27  1  0  0  0  0
  4 17  1  0  0  0  0
  4  5  1  0  0  0  0
  5  6  1  0  0  0  0
  5  7  2  0  0  0  0
  7  1  1  0  0  0  0
  7 28  1  0  0  0  0
  8  1  1  0  0  0  0
  8 29  1  0  0  0  0
  9 10  1  0  0  0  0
  9 30  1  0  0  0  0
  9 31  1  0  0  0  0
  9 32  1  0  0  0  0
 10 11  2  0  0  0  0
 11 12  1  0  0  0  0
 12  8  1  0  0  0  0
 12 13  2  0  0  0  0
 13 14  1  0  0  0  0
 13 33  1  0  0  0  0
 14 15  2  0  0  0  0
 14 34  1  0  0  0  0
 15 16  1  0  0  0  0
 15 10  1  0  0  0  0
 17 18  1  0  0  0  0
 18 19  1  0  0  0  0
 18 35  1  0  0  0  0
 18 36  1  0  0  0  0
 19 20  1  0  0  0  0
 19 37  1  0  0  0  0
 19 38  1  0  0  0  0
 20 21  1  0  0  0  0
 20 39  1  0  0  0  0
 21 22  1  0  0  0  0
 21 40  1  0  0  0  0
 21 41  1  0  0  0  0
 22 23  1  0  0  0  0
 22 42  1  0  0  0  0
 22 43  1  0  0  0  0
 23 24  1  0  0  0  0
 24 25  1  0  0  0  0
 24 44  1  0  0  0  0
 24 45  1  0  0  0  0
 25 20  1  0  0  0  0
 25 46  1  0  0  0  0
 25 47  1  0  0  0  0
M  CHG  1  20   1
M  END
>  <minimizedAffinity>
-7.26900

$$$$

 OpenBabel09092411003D

 48 50  0  0  0  0  0  0  0  0999 V2000
    0.9086  -51.2352   21.0319 C   0  0  0  0  0  0  0  0  0  0  0  0
    0.5056  -49.9228   20.4275 C   0  0  0  0  0  0  0  0  0  0  0  0
    0.4593  -49.7666   18.9363 C   0  0  0  0  0  0  0  0  0  0  0  0
    0.8161  -50.9228   18.0497 C   0  0  0  0  0  0  0  0  0  0  0  0
    1.2190  -52.2351   18.6542 C   0  0  0  0  0  0  0  0  0  0  0  0
    1.2653  -52.3913   20.1453 C   0  0  0  0  0  0  0  0  0  0  0  0
    1.6683  -53.7037   20.7498 Cl  0  0  0  0  0  0  0  0  0  0  0  0
    0.9549  -51.3914   22.5231 N   0  0  0  0  0  0  0  0  0  0  0  0
   -1.5172  -52.3440   25.4780 C   0  0  0  0  0  0  0  0  0  0  0  0
   -0.2505  -52.1139   24.7083 C   0  0  0  0  0  0  0  0  0  0  0  0
   -0.3120  -51.6216   23.2927 C   0  0  0  0  0  0  0  0  0  0  0  0
   -1.6401  -51.3595   22.6468 C   0  0  0  0  0  0  0  0  0  0  0  0
   -2.9068  -51.5897   23.4164 C   0  0  0  0  0  0  0  0  0  0  0  0
   -2.8454  -52.0819   24.8320 C   0  0  0  0  0  0  0  0  0  0  0  0
   -4.1122  -52.3121   25.6017 F   0  0  0  0  0  0  0  0  0  0  0  0
   -0.2352  -53.5563   27.3849 C   0  0  0  0  0  0  0  0  0  0  0  0
   -1.4558  -52.8363   26.8936 O   0  0  0  0  0  0  0  0  0  0  0  0
    0.7698  -50.7666   16.5586 C   0  0  0  0  0  0  0  0  0  0  0  0
    1.2862  -51.8620   15.6733 C   0  0  0  0  0  0  0  0  0  0  0  0
    2.6904  -51.8035   15.1492 N   0  3  0  0  0  0  0  0  0  0  0  0
    3.8127  -52.4045   15.9424 C   0  0  0  0  0  0  0  0  0  0  0  0
    5.2169  -52.3460   15.4182 C   0  0  0  0  0  0  0  0  0  0  0  0
    5.4988  -51.6865   14.1008 O   0  0  0  0  0  0  0  0  0  0  0  0
    4.3765  -51.0855   13.3075 C   0  0  0  0  0  0  0  0  0  0  0  0
    2.9723  -51.1440   13.8317 C   0  0  0  0  0  0  0  0  0  0  0  0
    0.2602  -49.1274   21.0375 H   0  0  0  0  0  0  0  0  0  0  0  0
    0.1820  -48.8637   18.5204 H   0  0  0  0  0  0  0  0  0  0  0  0
    1.4644  -53.0305   18.0442 H   0  0  0  0  0  0  0  0  0  0  0  0
    1.8167  -51.3428   22.9967 H   0  0  0  0  0  0  0  0  0  0  0  0
    0.6633  -52.2943   25.1526 H   0  0  0  0  0  0  0  0  0  0  0  0
   -1.6824  -51.0208   21.6729 H   0  0  0  0  0  0  0  0  0  0  0  0
   -3.8206  -51.4094   22.9720 H   0  0  0  0  0  0  0  0  0  0  0  0
   -0.3712  -53.8302   28.4103 H   0  0  0  0  0  0  0  0  0  0  0  0
    0.6168  -52.9149   27.2971 H   0  0  0  0  0  0  0  0  0  0  0  0
   -0.0804  -54.4374   26.7979 H   0  0  0  0  0  0  0  0  0  0  0  0
    1.3324  -49.8876   16.3225 H   0  0  0  0  0  0  0  0  0  0  0  0
   -0.2786  -50.7517   16.3453 H   0  0  0  0  0  0  0  0  0  0  0  0
    0.6399  -51.9012   14.8214 H   0  0  0  0  0  0  0  0  0  0  0  0
    1.3003  -52.7146   16.3197 H   0  0  0  0  0  0  0  0  0  0  0  0
    2.9555  -51.4452   16.0667 H   0  0  0  0  0  0  0  0  0  0  0  0
    3.5762  -53.4393   16.0771 H   0  0  0  0  0  0  0  0  0  0  0  0
    3.8513  -51.7907   16.8180 H   0  0  0  0  0  0  0  0  0  0  0  0
    5.5587  -53.3567   15.3371 H   0  0  0  0  0  0  0  0  0  0  0  0
    5.7159  -51.7130   16.1219 H   0  0  0  0  0  0  0  0  0  0  0  0
    4.3722  -51.5771   12.3571 H   0  0  0  0  0  0  0  0  0  0  0  0
    4.5999  -50.0392   13.3190 H   0  0  0  0  0  0  0  0  0  0  0  0
    2.3896  -51.6597   13.0972 H   0  0  0  0  0  0  0  0  0  0  0  0
    2.7353  -50.1168   14.0151 H   0  0  0  0  0  0  0  0  0  0  0  0
  1  2  2  0  0  0  0
  2  3  1  0  0  0  0
  2 26  1  0  0  0  0
  3  4  2  0  0  0  0
  3 27  1  0  0  0  0
  4 18  1  0  0  0  0
  4  5  1  0  0  0  0
  5  6  2  0  0  0  0
  5 28  1  0  0  0  0
  6  7  1  0  0  0  0
  6  1  1  0  0  0  0
  8  1  1  0  0  0  0
  8 29  1  0  0  0  0
  9 10  2  0  0  0  0
 10 11  1  0  0  0  0
 10 30  1  0  0  0  0
 11  8  1  0  0  0  0
 11 12  2  0  0  0  0
 12 13  1  0  0  0  0
 12 31  1  0  0  0  0
 13 14  2  0  0  0  0
 13 32  1  0  0  0  0
 14 15  1  0  0  0  0
 14  9  1  0  0  0  0
 16 17  1  0  0  0  0
 16 33  1  0  0  0  0
 16 34  1  0  0  0  0
 16 35  1  0  0  0  0
 17  9  1  0  0  0  0
 18 19  1  0  0  0  0
 18 36  1  0  0  0  0
 18 37  1  0  0  0  0
 19 20  1  0  0  0  0
 19 38  1  0  0  0  0
 19 39  1  0  0  0  0
 20 21  1  0  0  0  0
 20 40  1  0  0  0  0
 21 22  1  0  0  0  0
 21 41  1  0  0  0  0
 21 42  1  0  0  0  0
 22 23  1  0  0  0  0
 22 43  1  0  0  0  0
 22 44  1  0  0  0  0
 23 24  1  0  0  0  0
 24 25  1  0  0  0  0
 24 45  1  0  0  0  0
 24 46  1  0  0  0  0
 25 20  1  0  0  0  0
 25 47  1  0  0  0  0
 25 48  1  0  0  0  0
M  CHG  1  20   1
M  END
>  <minimizedAffinity>
-7.76191

$$$$

 OpenBabel09092411003D

 45 47  0  0  0  0  0  0  0  0999 V2000
    1.5050  -51.3690   28.3055 O   0  0  0  0  0  0  0  0  0  0  0  0
    0.9029  -51.5021   26.9381 C   0  0  0  0  0  0  0  0  0  0  0  0
    1.7023  -51.1241   25.7265 C   0  0  0  0  0  0  0  0  0  0  0  0
    1.1001  -51.2572   24.3592 C   0  0  0  0  0  0  0  0  0  0  0  0
   -0.3015  -51.7683   24.2034 C   0  0  0  0  0  0  0  0  0  0  0  0
   -1.1009  -52.1463   25.4150 C   0  0  0  0  0  0  0  0  0  0  0  0
   -0.4987  -52.0132   26.7824 N   0  0  0  0  0  0  0  0  0  0  0  0
   -0.9037  -51.9014   22.8361 N   0  0  0  0  0  0  0  0  0  0  0  0
   -0.0165  -52.0840   21.6404 C   0  0  0  0  0  0  0  0  0  0  0  0
    0.9117  -53.2601   21.5678 C   0  0  0  0  0  0  0  0  0  0  0  0
    1.7989  -53.4427   20.3722 C   0  0  0  0  0  0  0  0  0  0  0  0
    1.7577  -52.4493   19.2491 C   0  0  0  0  0  0  0  0  0  0  0  0
    2.6449  -52.6320   18.0534 F   0  0  0  0  0  0  0  0  0  0  0  0
    0.8295  -51.2733   19.3216 C   0  0  0  0  0  0  0  0  0  0  0  0
    0.7884  -50.2799   18.1984 Cl  0  0  0  0  0  0  0  0  0  0  0  0
   -0.0577  -51.0906   20.5173 C   0  0  0  0  0  0  0  0  0  0  0  0
   -2.5025  -52.6575   25.2593 O   0  0  0  0  0  0  0  0  0  0  0  0
   -3.6486  -51.8988   25.8600 C   0  0  0  0  0  0  0  0  0  0  0  0
   -4.5897  -51.1367   24.9748 C   0  0  0  0  0  0  0  0  0  0  0  0
   -4.1179  -50.6180   23.6488 N   0  3  0  0  0  0  0  0  0  0  0  0
   -4.4447  -51.3673   22.3911 C   0  0  0  0  0  0  0  0  0  0  0  0
   -3.9729  -50.8487   21.0651 C   0  0  0  0  0  0  0  0  0  0  0  0
   -3.1743  -49.5807   20.9967 O   0  0  0  0  0  0  0  0  0  0  0  0
   -2.8476  -48.8314   22.2544 C   0  0  0  0  0  0  0  0  0  0  0  0
   -3.3194  -49.3501   23.5805 C   0  0  0  0  0  0  0  0  0  0  0  0
    2.3805  -51.0497   28.4028 H   0  0  0  0  0  0  0  0  0  0  0  0
    2.6666  -50.7725   25.8336 H   0  0  0  0  0  0  0  0  0  0  0  0
    1.6501  -50.9971   23.5256 H   0  0  0  0  0  0  0  0  0  0  0  0
   -1.8812  -51.8689   22.7234 H   0  0  0  0  0  0  0  0  0  0  0  0
    0.9399  -53.9436   22.3405 H   0  0  0  0  0  0  0  0  0  0  0  0
    2.4376  -54.2518   20.3223 H   0  0  0  0  0  0  0  0  0  0  0  0
   -0.6964  -50.2815   20.5672 H   0  0  0  0  0  0  0  0  0  0  0  0
   -3.2267  -51.1919   26.5434 H   0  0  0  0  0  0  0  0  0  0  0  0
   -4.2666  -52.6704   26.2695 H   0  0  0  0  0  0  0  0  0  0  0  0
   -4.9244  -50.2897   25.5364 H   0  0  0  0  0  0  0  0  0  0  0  0
   -5.3219  -51.8691   24.7059 H   0  0  0  0  0  0  0  0  0  0  0  0
   -3.3471  -50.0682   23.2693 H   0  0  0  0  0  0  0  0  0  0  0  0
   -5.5115  -51.4291   22.3367 H   0  0  0  0  0  0  0  0  0  0  0  0
   -3.9040  -52.2838   22.5033 H   0  0  0  0  0  0  0  0  0  0  0  0
   -4.8454  -50.6970   20.4646 H   0  0  0  0  0  0  0  0  0  0  0  0
   -3.2774  -51.5951   20.7425 H   0  0  0  0  0  0  0  0  0  0  0  0
   -3.2567  -47.8489   22.1437 H   0  0  0  0  0  0  0  0  0  0  0  0
   -1.7831  -48.9162   22.3217 H   0  0  0  0  0  0  0  0  0  0  0  0
   -3.9228  -48.5812   24.0160 H   0  0  0  0  0  0  0  0  0  0  0  0
   -2.4096  -49.6051   24.0827 H   0  0  0  0  0  0  0  0  0  0  0  0
  1  2  1  0  0  0  0
  1 26  1  0  0  0  0
  2  3  2  0  0  0  0
  3  4  1  0  0  0  0
  3 27  1  0  0  0  0
  4  5  2  0  0  0  0
  4 28  1  0  0  0  0
  5  8  1  0  0  0  0
  5  6  1  0  0  0  0
  6 17  1  0  0  0  0
  6  7  2  0  0  0  0
  7  2  1  0  0  0  0
  8  9  1  0  0  0  0
  8 29  1  0  0  0  0
  9 10  2  0  0  0  0
 10 11  1  0  0  0  0
 10 30  1  0  0  0  0
 11 12  2  0  0  0  0
 11 31  1  0  0  0  0
 12 13  1  0  0  0  0
 12 14  1  0  0  0  0
 14 15  1  0  0  0  0
 14 16  2  0  0  0  0
 16  9  1  0  0  0  0
 16 32  1  0  0  0  0
 17 18  1  0  0  0  0
 18 19  1  0  0  0  0
 18 33  1  0  0  0  0
 18 34  1  0  0  0  0
 19 20  1  0  0  0  0
 19 35  1  0  0  0  0
 19 36  1  0  0  0  0
 20 21  1  0  0  0  0
 20 37  1  0  0  0  0
 21 22  1  0  0  0  0
 21 38  1  0  0  0  0
 21 39  1  0  0  0  0
 22 23  1  0  0  0  0
 22 40  1  0  0  0  0
 22 41  1  0  0  0  0
 23 24  1  0  0  0  0
 24 25  1  0  0  0  0
 24 42  1  0  0  0  0
 24 43  1  0  0  0  0
 25 20  1  0  0  0  0
 25 44  1  0  0  0  0
 25 45  1  0  0  0  0
M  CHG  1  20   1
M  END
>  <minimizedAffinity>
-7.62423

$$$$

 OpenBabel09092411003D

 49 51  0  0  0  0  0  0  0  0999 V2000
    1.2101  -52.9302   20.8895 C   0  0  0  0  0  0  0  0  0  0  0  0
    1.3581  -54.1932   21.6851 C   0  0  0  0  0  0  0  0  0  0  0  0
    1.3478  -54.1408   23.1842 C   0  0  0  0  0  0  0  0  0  0  0  0
    1.1894  -52.8254   23.8876 C   0  0  0  0  0  0  0  0  0  0  0  0
    1.0414  -51.5625   23.0920 C   0  0  0  0  0  0  0  0  0  0  0  0
    1.0518  -51.6149   21.5929 C   0  0  0  0  0  0  0  0  0  0  0  0
    1.2204  -52.9825   19.3905 N   0  0  0  0  0  0  0  0  0  0  0  0
   -1.7162  -50.7008   18.0048 C   0  0  0  0  0  0  0  0  0  0  0  0
   -0.9849  -51.7439   18.7967 C   0  0  0  0  0  0  0  0  0  0  0  0
    0.4891  -51.9394   18.5985 C   0  0  0  0  0  0  0  0  0  0  0  0
    1.2316  -51.0920   17.6083 C   0  0  0  0  0  0  0  0  0  0  0  0
    0.5002  -50.0490   16.8164 C   0  0  0  0  0  0  0  0  0  0  0  0
   -0.9737  -49.8534   17.0147 C   0  0  0  0  0  0  0  0  0  0  0  0
   -1.7051  -48.8103   16.2227 Cl  0  0  0  0  0  0  0  0  0  0  0  0
   -3.6952  -49.7995   19.4265 C   0  0  0  0  0  0  0  0  0  0  0  0
   -3.1902  -50.5053   18.2031 O   0  0  0  0  0  0  0  0  0  0  0  0
    1.1791  -52.7731   25.3866 O   0  0  0  0  0  0  0  0  0  0  0  0
   -0.0001  -53.3029   26.1475 C   0  0  0  0  0  0  0  0  0  0  0  0
   -1.1783  -52.4149   26.4186 C   0  0  0  0  0  0  0  0  0  0  0  0
   -1.7121  -51.5255   25.3351 N   0  3  0  0  0  0  0  0  0  0  0  0
   -2.5072  -52.1125   24.2068 C   0  0  0  0  0  0  0  0  0  0  0  0
   -3.0411  -51.2230   23.1232 C   0  0  0  0  0  0  0  0  0  0  0  0
   -2.7797  -49.7467   23.1681 O   0  0  0  0  0  0  0  0  0  0  0  0
   -1.9845  -49.1597   24.2965 C   0  0  0  0  0  0  0  0  0  0  0  0
   -1.4507  -50.0491   25.3800 C   0  0  0  0  0  0  0  0  0  0  0  0
    1.4670  -55.0982   21.2011 H   0  0  0  0  0  0  0  0  0  0  0  0
    1.4497  -55.0097   23.7316 H   0  0  0  0  0  0  0  0  0  0  0  0
    0.9324  -50.6575   23.5759 H   0  0  0  0  0  0  0  0  0  0  0  0
    0.9500  -50.7460   21.0455 H   0  0  0  0  0  0  0  0  0  0  0  0
    1.7072  -53.7015   18.9264 H   0  0  0  0  0  0  0  0  0  0  0  0
   -1.4958  -52.3270   19.4778 H   0  0  0  0  0  0  0  0  0  0  0  0
    2.2457  -51.2266   17.4719 H   0  0  0  0  0  0  0  0  0  0  0  0
    1.0110  -49.4660   16.1351 H   0  0  0  0  0  0  0  0  0  0  0  0
   -4.7638  -49.7539   19.3964 H   0  0  0  0  0  0  0  0  0  0  0  0
   -3.2965  -48.8070   19.4558 H   0  0  0  0  0  0  0  0  0  0  0  0
   -3.3855  -50.3341   20.3001 H   0  0  0  0  0  0  0  0  0  0  0  0
    0.3668  -53.6282   27.0985 H   0  0  0  0  0  0  0  0  0  0  0  0
   -0.4000  -54.0491   25.4931 H   0  0  0  0  0  0  0  0  0  0  0  0
   -0.9042  -51.7783   27.2338 H   0  0  0  0  0  0  0  0  0  0  0  0
   -1.9763  -53.1084   26.5830 H   0  0  0  0  0  0  0  0  0  0  0  0
   -2.3046  -50.9234   24.7634 H   0  0  0  0  0  0  0  0  0  0  0  0
   -3.3499  -52.6043   24.6459 H   0  0  0  0  0  0  0  0  0  0  0  0
   -1.7933  -52.7230   23.6944 H   0  0  0  0  0  0  0  0  0  0  0  0
   -4.1037  -51.3485   23.1161 H   0  0  0  0  0  0  0  0  0  0  0  0
   -2.5024  -51.5419   22.2555 H   0  0  0  0  0  0  0  0  0  0  0  0
   -2.6120  -48.4354   24.7725 H   0  0  0  0  0  0  0  0  0  0  0  0
   -1.0992  -48.8020   23.8135 H   0  0  0  0  0  0  0  0  0  0  0  0
   -1.8583  -49.6911   26.3023 H   0  0  0  0  0  0  0  0  0  0  0  0
   -0.3904  -49.9830   25.2524 H   0  0  0  0  0  0  0  0  0  0  0  0
  1  2  2  0  0  0  0
  2  3  1  0  0  0  0
  2 26  1  0  0  0  0
  3  4  2  0  0  0  0
  3 27  1  0  0  0  0
  4 17  1  0  0  0  0
  4  5  1  0  0  0  0
  5  6  2  0  0  0  0
  5 28  1  0  0  0  0
  6  1  1  0  0  0  0
  6 29  1  0  0  0  0
  7  1  1  0  0  0  0
  7 30  1  0  0  0  0
  8  9  2  0  0  0  0
  9 10  1  0  0  0  0
  9 31  1  0  0  0  0
 10  7  1  0  0  0  0
 10 11  2  0  0  0  0
 11 12  1  0  0  0  0
 11 32  1  0  0  0  0
 12 13  2  0  0  0  0
 12 33  1  0  0  0  0
 13 14  1  0  0  0  0
 13  8  1  0  0  0  0
 15 16  1  0  0  0  0
 15 34  1  0  0  0  0
 15 35  1  0  0  0  0
 15 36  1  0  0  0  0
 16  8  1  0  0  0  0
 17 18  1  0  0  0  0
 18 19  1  0  0  0  0
 18 37  1  0  0  0  0
 18 38  1  0  0  0  0
 19 20  1  0  0  0  0
 19 39  1  0  0  0  0
 19 40  1  0  0  0  0
 20 21  1  0  0  0  0
 20 41  1  0  0  0  0
 21 22  1  0  0  0  0
 21 42  1  0  0  0  0
 21 43  1  0  0  0  0
 22 23  1  0  0  0  0
 22 44  1  0  0  0  0
 22 45  1  0  0  0  0
 23 24  1  0  0  0  0
 24 25  1  0  0  0  0
 24 46  1  0  0  0  0
 24 47  1  0  0  0  0
 25 20  1  0  0  0  0
 25 48  1  0  0  0  0
 25 49  1  0  0  0  0
M  CHG  1  20   1
M  END
>  <minimizedAffinity>
-6.84887

$$$$

 OpenBabel09092411003D

 47 49  0  0  0  0  0  0  0  0999 V2000
    0.7490  -53.1964   25.3952 C   0  0  0  0  0  0  0  0  0  0  0  0
   -0.6888  -53.2281   25.8217 C   0  0  0  0  0  0  0  0  0  0  0  0
   -1.1127  -52.5333   27.0817 C   0  0  0  0  0  0  0  0  0  0  0  0
   -0.0989  -51.8069   27.9152 N   0  0  0  0  0  0  0  0  0  0  0  0
    1.3387  -51.7753   27.4887 C   0  0  0  0  0  0  0  0  0  0  0  0
    1.7627  -52.4700   26.2287 N   0  0  0  0  0  0  0  0  0  0  0  0
    1.1730  -53.8911   24.1352 N   0  0  0  0  0  0  0  0  0  0  0  0
    0.4689  -51.0628   21.4417 C   0  0  0  0  0  0  0  0  0  0  0  0
    0.5954  -51.7621   22.7626 C   0  0  0  0  0  0  0  0  0  0  0  0
    1.0465  -53.1918   22.8142 C   0  0  0  0  0  0  0  0  0  0  0  0
    1.3711  -53.9220   21.5449 C   0  0  0  0  0  0  0  0  0  0  0  0
    1.2446  -53.2227   20.2239 C   0  0  0  0  0  0  0  0  0  0  0  0
    0.7935  -51.7931   20.1724 C   0  0  0  0  0  0  0  0  0  0  0  0
    0.6670  -51.0937   18.8513 Cl  0  0  0  0  0  0  0  0  0  0  0  0
   -1.1779  -49.1949   22.1827 C   0  0  0  0  0  0  0  0  0  0  0  0
    0.0178  -49.6331   21.3901 O   0  0  0  0  0  0  0  0  0  0  0  0
   -2.5504  -52.5650   27.5083 O   0  0  0  0  0  0  0  0  0  0  0  0
   -3.3947  -51.3307   27.3915 C   0  0  0  0  0  0  0  0  0  0  0  0
   -3.1432  -50.3520   26.2829 C   0  0  0  0  0  0  0  0  0  0  0  0
   -3.8784  -50.4868   24.9824 N   0  3  0  0  0  0  0  0  0  0  0  0
   -3.5299  -51.5966   24.0353 C   0  0  0  0  0  0  0  0  0  0  0  0
   -4.2651  -51.7312   22.7348 C   0  0  0  0  0  0  0  0  0  0  0  0
   -5.3488  -50.7562   22.3814 O   0  0  0  0  0  0  0  0  0  0  0  0
   -5.6972  -49.6464   23.3284 C   0  0  0  0  0  0  0  0  0  0  0  0
   -4.9621  -49.5117   24.6289 C   0  0  0  0  0  0  0  0  0  0  0  0
   -1.3863  -53.7279   25.2483 H   0  0  0  0  0  0  0  0  0  0  0  0
    2.0362  -51.2756   28.0621 H   0  0  0  0  0  0  0  0  0  0  0  0
    1.5343  -54.8060   24.1752 H   0  0  0  0  0  0  0  0  0  0  0  0
    0.3721  -51.2596   23.6359 H   0  0  0  0  0  0  0  0  0  0  0  0
    1.6815  -54.9056   21.5804 H   0  0  0  0  0  0  0  0  0  0  0  0
    1.4679  -53.7251   19.3506 H   0  0  0  0  0  0  0  0  0  0  0  0
   -1.3483  -48.1506   22.0234 H   0  0  0  0  0  0  0  0  0  0  0  0
   -1.0010  -49.3728   23.2229 H   0  0  0  0  0  0  0  0  0  0  0  0
   -2.0374  -49.7487   21.8673 H   0  0  0  0  0  0  0  0  0  0  0  0
   -3.2838  -50.7926   28.3097 H   0  0  0  0  0  0  0  0  0  0  0  0
   -4.3656  -51.7177   27.1623 H   0  0  0  0  0  0  0  0  0  0  0  0
   -2.0992  -50.4055   26.0545 H   0  0  0  0  0  0  0  0  0  0  0  0
   -3.5131  -49.4299   26.6802 H   0  0  0  0  0  0  0  0  0  0  0  0
   -4.2309  -51.2715   25.5305 H   0  0  0  0  0  0  0  0  0  0  0  0
   -3.6735  -52.5136   24.5677 H   0  0  0  0  0  0  0  0  0  0  0  0
   -2.5329  -51.3559   23.7305 H   0  0  0  0  0  0  0  0  0  0  0  0
   -4.7114  -52.7037   22.7315 H   0  0  0  0  0  0  0  0  0  0  0  0
   -3.5092  -51.5344   22.0035 H   0  0  0  0  0  0  0  0  0  0  0  0
   -6.7334  -49.7601   23.5697 H   0  0  0  0  0  0  0  0  0  0  0  0
   -5.4108  -48.7661   22.7917 H   0  0  0  0  0  0  0  0  0  0  0  0
   -5.6956  -49.5700   25.4058 H   0  0  0  0  0  0  0  0  0  0  0  0
   -4.4348  -48.5872   24.5187 H   0  0  0  0  0  0  0  0  0  0  0  0
  1  2  2  0  0  0  0
  2  3  1  0  0  0  0
  2 26  1  0  0  0  0
  3 17  1  0  0  0  0
  3  4  2  0  0  0  0
  4  5  1  0  0  0  0
  5  6  2  0  0  0  0
  5 27  1  0  0  0  0
  6  1  1  0  0  0  0
  7  1  1  0  0  0  0
  7 28  1  0  0  0  0
  8  9  2  0  0  0  0
  9 10  1  0  0  0  0
  9 29  1  0  0  0  0
 10  7  1  0  0  0  0
 10 11  2  0  0  0  0
 11 12  1  0  0  0  0
 11 30  1  0  0  0  0
 12 13  2  0  0  0  0
 12 31  1  0  0  0  0
 13 14  1  0  0  0  0
 13  8  1  0  0  0  0
 15 16  1  0  0  0  0
 15 32  1  0  0  0  0
 15 33  1  0  0  0  0
 15 34  1  0  0  0  0
 16  8  1  0  0  0  0
 17 18  1  0  0  0  0
 18 19  1  0  0  0  0
 18 35  1  0  0  0  0
 18 36  1  0  0  0  0
 19 20  1  0  0  0  0
 19 37  1  0  0  0  0
 19 38  1  0  0  0  0
 20 21  1  0  0  0  0
 20 39  1  0  0  0  0
 21 22  1  0  0  0  0
 21 40  1  0  0  0  0
 21 41  1  0  0  0  0
 22 23  1  0  0  0  0
 22 42  1  0  0  0  0
 22 43  1  0  0  0  0
 23 24  1  0  0  0  0
 24 25  1  0  0  0  0
 24 44  1  0  0  0  0
 24 45  1  0  0  0  0
 25 20  1  0  0  0  0
 25 46  1  0  0  0  0
 25 47  1  0  0  0  0
M  CHG  1  20   1
M  END
>  <minimizedAffinity>
-7.24977

$$$$

 OpenBabel09092411003D

 49 51  0  0  0  0  0  0  0  0999 V2000
   -0.1024  -52.2151   24.4089 C   0  0  0  0  0  0  0  0  0  0  0  0
    0.5675  -51.1116   25.1728 C   0  0  0  0  0  0  0  0  0  0  0  0
   -0.2385  -50.2322   26.0821 C   0  0  0  0  0  0  0  0  0  0  0  0
   -1.7145  -50.4563   26.2277 C   0  0  0  0  0  0  0  0  0  0  0  0
   -2.3845  -51.5598   25.4639 C   0  0  0  0  0  0  0  0  0  0  0  0
   -3.8605  -51.7838   25.6094 Cl  0  0  0  0  0  0  0  0  0  0  0  0
   -1.5785  -52.4392   24.5544 C   0  0  0  0  0  0  0  0  0  0  0  0
    0.7036  -53.0945   23.4995 N   0  0  0  0  0  0  0  0  0  0  0  0
    1.3016  -51.9317   19.1937 C   0  0  0  0  0  0  0  0  0  0  0  0
    1.4649  -53.3623   19.6139 C   0  0  0  0  0  0  0  0  0  0  0  0
    1.2655  -53.7499   21.0491 C   0  0  0  0  0  0  0  0  0  0  0  0
    0.9029  -52.7069   22.0643 C   0  0  0  0  0  0  0  0  0  0  0  0
    0.7397  -51.2763   21.6441 C   0  0  0  0  0  0  0  0  0  0  0  0
    0.9390  -50.8887   20.2088 C   0  0  0  0  0  0  0  0  0  0  0  0
    0.7757  -49.4579   19.7887 F   0  0  0  0  0  0  0  0  0  0  0  0
    2.5538  -52.2266   16.9365 C   0  0  0  0  0  0  0  0  0  0  0  0
    1.5010  -51.5441   17.7584 O   0  0  0  0  0  0  0  0  0  0  0  0
   -2.5205  -49.5768   27.1371 O   0  0  0  0  0  0  0  0  0  0  0  0
   -2.9464  -48.2137   26.6785 C   0  0  0  0  0  0  0  0  0  0  0  0
   -3.5542  -48.0358   25.3188 C   0  0  0  0  0  0  0  0  0  0  0  0
   -2.6932  -47.6291   24.1597 N   0  3  0  0  0  0  0  0  0  0  0  0
   -2.2274  -48.6592   23.1738 C   0  0  0  0  0  0  0  0  0  0  0  0
   -1.3665  -48.2526   22.0147 C   0  0  0  0  0  0  0  0  0  0  0  0
   -0.9713  -46.8160   21.8416 O   0  0  0  0  0  0  0  0  0  0  0  0
   -1.4371  -45.7860   22.8275 C   0  0  0  0  0  0  0  0  0  0  0  0
   -2.2981  -46.1926   23.9866 C   0  0  0  0  0  0  0  0  0  0  0  0
    1.5830  -50.9574   25.0727 H   0  0  0  0  0  0  0  0  0  0  0  0
    0.2224  -49.4730   26.6076 H   0  0  0  0  0  0  0  0  0  0  0  0
   -2.0395  -53.1983   24.0288 H   0  0  0  0  0  0  0  0  0  0  0  0
    1.1018  -53.9261   23.8447 H   0  0  0  0  0  0  0  0  0  0  0  0
    1.7145  -54.0799   18.9155 H   0  0  0  0  0  0  0  0  0  0  0  0
    1.3778  -54.7342   21.3381 H   0  0  0  0  0  0  0  0  0  0  0  0
    0.4903  -50.5586   22.3425 H   0  0  0  0  0  0  0  0  0  0  0  0
    2.5501  -51.8228   15.9456 H   0  0  0  0  0  0  0  0  0  0  0  0
    2.3491  -53.2760   16.8948 H   0  0  0  0  0  0  0  0  0  0  0  0
    3.5132  -52.0679   17.3828 H   0  0  0  0  0  0  0  0  0  0  0  0
   -2.0770  -47.5909   26.7121 H   0  0  0  0  0  0  0  0  0  0  0  0
   -3.7509  -47.9715   27.3411 H   0  0  0  0  0  0  0  0  0  0  0  0
   -4.3146  -47.2893   25.4156 H   0  0  0  0  0  0  0  0  0  0  0  0
   -3.8667  -49.0253   25.0577 H   0  0  0  0  0  0  0  0  0  0  0  0
   -2.4998  -46.6686   23.8762 H   0  0  0  0  0  0  0  0  0  0  0  0
   -3.1052  -49.1124   22.7626 H   0  0  0  0  0  0  0  0  0  0  0  0
   -1.5793  -49.2809   23.7554 H   0  0  0  0  0  0  0  0  0  0  0  0
   -1.8897  -48.5382   21.1261 H   0  0  0  0  0  0  0  0  0  0  0  0
   -0.4361  -48.7411   22.2161 H   0  0  0  0  0  0  0  0  0  0  0  0
   -1.9894  -45.0558   22.2737 H   0  0  0  0  0  0  0  0  0  0  0  0
   -0.5298  -45.4656   23.2956 H   0  0  0  0  0  0  0  0  0  0  0  0
   -3.2050  -45.6299   23.9101 H   0  0  0  0  0  0  0  0  0  0  0  0
   -1.6732  -46.0055   24.8347 H   0  0  0  0  0  0  0  0  0  0  0  0
  1  2  2  0  0  0  0
  2  3  1  0  0  0  0
  2 27  1  0  0  0  0
  3  4  2  0  0  0  0
  3 28  1  0  0  0  0
  4 18  1  0  0  0  0
  4  5  1  0  0  0  0
  5  6  1  0  0  0  0
  5  7  2  0  0  0  0
  7  1  1  0  0  0  0
  7 29  1  0  0  0  0
  8  1  1  0  0  0  0
  8 30  1  0  0  0  0
  9 10  2  0  0  0  0
 10 11  1  0  0  0  0
 10 31  1  0  0  0  0
 11 12  2  0  0  0  0
 11 32  1  0  0  0  0
 12  8  1  0  0  0  0
 12 13  1  0  0  0  0
 13 14  2  0  0  0  0
 13 33  1  0  0  0  0
 14 15  1  0  0  0  0
 14  9  1  0  0  0  0
 16 17  1  0  0  0  0
 16 34  1  0  0  0  0
 16 35  1  0  0  0  0
 16 36  1  0  0  0  0
 17  9  1  0  0  0  0
 18 19  1  0  0  0  0
 19 20  1  0  0  0  0
 19 37  1  0  0  0  0
 19 38  1  0  0  0  0
 20 21  1  0  0  0  0
 20 39  1  0  0  0  0
 20 40  1  0  0  0  0
 21 22  1  0  0  0  0
 21 41  1  0  0  0  0
 22 23  1  0  0  0  0
 22 42  1  0  0  0  0
 22 43  1  0  0  0  0
 23 24  1  0  0  0  0
 23 44  1  0  0  0  0
 23 45  1  0  0  0  0
 24 25  1  0  0  0  0
 25 26  1  0  0  0  0
 25 46  1  0  0  0  0
 25 47  1  0  0  0  0
 26 21  1  0  0  0  0
 26 48  1  0  0  0  0
 26 49  1  0  0  0  0
M  CHG  1  21   1
M  END
>  <minimizedAffinity>
-6.99211

$$$$

 OpenBabel09092411003D

 49 51  0  0  0  0  0  0  0  0999 V2000
    1.8264  -52.4673   19.1421 C   0  0  0  0  0  0  0  0  0  0  0  0
    2.0320  -53.5275   20.1831 C   0  0  0  0  0  0  0  0  0  0  0  0
    1.2131  -53.5136   21.4397 C   0  0  0  0  0  0  0  0  0  0  0  0
    0.1885  -52.4395   21.6553 C   0  0  0  0  0  0  0  0  0  0  0  0
   -0.0171  -51.3793   20.6144 C   0  0  0  0  0  0  0  0  0  0  0  0
    0.8019  -51.3932   19.3578 C   0  0  0  0  0  0  0  0  0  0  0  0
    2.1016  -51.8684   16.6291 C   0  0  0  0  0  0  0  0  0  0  0  0
    2.6454  -52.4812   17.8855 O   0  0  0  0  0  0  0  0  0  0  0  0
   -0.6305  -52.4257   22.9120 N   0  0  0  0  0  0  0  0  0  0  0  0
    0.0351  -52.2090   24.2386 C   0  0  0  0  0  0  0  0  0  0  0  0
    1.1388  -51.2015   24.3684 C   0  0  0  0  0  0  0  0  0  0  0  0
    1.8044  -50.9849   25.6950 C   0  0  0  0  0  0  0  0  0  0  0  0
    1.3663  -51.7757   26.8920 C   0  0  0  0  0  0  0  0  0  0  0  0
    2.0319  -51.5591   28.2187 F   0  0  0  0  0  0  0  0  0  0  0  0
    0.2626  -52.7832   26.7622 C   0  0  0  0  0  0  0  0  0  0  0  0
   -0.1755  -53.5740   27.9592 Cl  0  0  0  0  0  0  0  0  0  0  0  0
   -0.4030  -52.9999   25.4355 C   0  0  0  0  0  0  0  0  0  0  0  0
   -1.0417  -50.3052   20.8300 O   0  0  0  0  0  0  0  0  0  0  0  0
   -0.7595  -49.1793   21.7800 C   0  0  0  0  0  0  0  0  0  0  0  0
   -1.8577  -48.6337   22.6439 C   0  0  0  0  0  0  0  0  0  0  0  0
   -2.3278  -49.4094   23.8386 N   0  3  0  0  0  0  0  0  0  0  0  0
   -3.3655  -50.4803   23.6766 C   0  0  0  0  0  0  0  0  0  0  0  0
   -3.8356  -51.2560   24.8713 C   0  0  0  0  0  0  0  0  0  0  0  0
   -3.2678  -50.9608   26.2280 O   0  0  0  0  0  0  0  0  0  0  0  0
   -2.2301  -49.8899   26.3900 C   0  0  0  0  0  0  0  0  0  0  0  0
   -1.7600  -49.1142   25.1952 C   0  0  0  0  0  0  0  0  0  0  0  0
    2.7369  -54.2665   20.0347 H   0  0  0  0  0  0  0  0  0  0  0  0
    1.3546  -54.2430   22.1559 H   0  0  0  0  0  0  0  0  0  0  0  0
    0.6605  -50.6637   18.6416 H   0  0  0  0  0  0  0  0  0  0  0  0
    2.8195  -51.9714   15.8424 H   0  0  0  0  0  0  0  0  0  0  0  0
    1.9018  -50.8305   16.7960 H   0  0  0  0  0  0  0  0  0  0  0  0
    1.1956  -52.3661   16.3527 H   0  0  0  0  0  0  0  0  0  0  0  0
   -1.6049  -52.5589   22.8660 H   0  0  0  0  0  0  0  0  0  0  0  0
    1.4402  -50.6574   23.5449 H   0  0  0  0  0  0  0  0  0  0  0  0
    2.5638  -50.2918   25.7842 H   0  0  0  0  0  0  0  0  0  0  0  0
   -1.1623  -53.6931   25.3462 H   0  0  0  0  0  0  0  0  0  0  0  0
   -0.3947  -48.3632   21.1920 H   0  0  0  0  0  0  0  0  0  0  0  0
   -0.0853  -49.6167   22.4864 H   0  0  0  0  0  0  0  0  0  0  0  0
   -2.7091  -48.4957   22.0107 H   0  0  0  0  0  0  0  0  0  0  0  0
   -1.4189  -47.7586   23.0760 H   0  0  0  0  0  0  0  0  0  0  0  0
   -3.2745  -49.2999   24.2022 H   0  0  0  0  0  0  0  0  0  0  0  0
   -2.9693  -51.1919   22.9827 H   0  0  0  0  0  0  0  0  0  0  0  0
   -4.2369  -49.9354   23.3788 H   0  0  0  0  0  0  0  0  0  0  0  0
   -3.6331  -52.2871   24.6694 H   0  0  0  0  0  0  0  0  0  0  0  0
   -4.8611  -50.9654   24.9653 H   0  0  0  0  0  0  0  0  0  0  0  0
   -1.3663  -50.3583   26.8136 H   0  0  0  0  0  0  0  0  0  0  0  0
   -2.7292  -49.1514   26.9819 H   0  0  0  0  0  0  0  0  0  0  0  0
   -0.7027  -49.2633   25.1266 H   0  0  0  0  0  0  0  0  0  0  0  0
   -2.1048  -48.1212   25.3954 H   0  0  0  0  0  0  0  0  0  0  0  0
  1  2  2  0  0  0  0
  2  3  1  0  0  0  0
  2 27  1  0  0  0  0
  3  4  2  0  0  0  0
  3 28  1  0  0  0  0
  4  9  1  0  0  0  0
  4  5  1  0  0  0  0
  5 18  1  0  0  0  0
  5  6  2  0  0  0  0
  6  1  1  0  0  0  0
  6 29  1  0  0  0  0
  7  8  1  0  0  0  0
  7 30  1  0  0  0  0
  7 31  1  0  0  0  0
  7 32  1  0  0  0  0
  8  1  1  0  0  0  0
  9 10  1  0  0  0  0
  9 33  1  0  0  0  0
 10 11  2  0  0  0  0
 11 12  1  0  0  0  0
 11 34  1  0  0  0  0
 12 13  2  0  0  0  0
 12 35  1  0  0  0  0
 13 14  1  0  0  0  0
 13 15  1  0  0  0  0
 15 16  1  0  0  0  0
 15 17  2  0  0  0  0
 17 10  1  0  0  0  0
 17 36  1  0  0  0  0
 18 19  1  0  0  0  0
 19 20  1  0  0  0  0
 19 37  1  0  0  0  0
 19 38  1  0  0  0  0
 20 21  1  0  0  0  0
 20 39  1  0  0  0  0
 20 40  1  0  0  0  0
 21 22  1  0  0  0  0
 21 41  1  0  0  0  0
 22 23  1  0  0  0  0
 22 42  1  0  0  0  0
 22 43  1  0  0  0  0
 23 24  1  0  0  0  0
 23 44  1  0  0  0  0
 23 45  1  0  0  0  0
 24 25  1  0  0  0  0
 25 26  1  0  0  0  0
 25 46  1  0  0  0  0
 25 47  1  0  0  0  0
 26 21  1  0  0  0  0
 26 48  1  0  0  0  0
 26 49  1  0  0  0  0
M  CHG  1  21   1
M  END
>  <minimizedAffinity>
-7.13643

$$$$

 OpenBabel09092411003D

 49 51  0  0  0  0  0  0  0  0999 V2000
   -0.5724  -50.9544   22.3574 C   0  0  0  0  0  0  0  0  0  0  0  0
   -0.3676  -49.6781   21.5962 C   0  0  0  0  0  0  0  0  0  0  0  0
    0.3433  -49.6985   20.2755 C   0  0  0  0  0  0  0  0  0  0  0  0
    0.8493  -50.9950   19.7160 C   0  0  0  0  0  0  0  0  0  0  0  0
    0.6445  -52.2712   20.4772 C   0  0  0  0  0  0  0  0  0  0  0  0
    1.1505  -53.5677   19.9177 Cl  0  0  0  0  0  0  0  0  0  0  0  0
   -0.0664  -52.2508   21.7979 C   0  0  0  0  0  0  0  0  0  0  0  0
   -1.2833  -50.9340   23.6781 N   0  0  0  0  0  0  0  0  0  0  0  0
    1.6921  -51.3775   26.2667 C   0  0  0  0  0  0  0  0  0  0  0  0
    0.9457  -51.0476   25.0081 C   0  0  0  0  0  0  0  0  0  0  0  0
   -0.5369  -51.2640   24.9368 C   0  0  0  0  0  0  0  0  0  0  0  0
   -1.2730  -51.8103   26.1240 C   0  0  0  0  0  0  0  0  0  0  0  0
   -0.5266  -52.1402   27.3825 C   0  0  0  0  0  0  0  0  0  0  0  0
    0.9559  -51.9238   27.4539 C   0  0  0  0  0  0  0  0  0  0  0  0
    1.7023  -52.2538   28.7125 F   0  0  0  0  0  0  0  0  0  0  0  0
    4.0228  -52.0548   27.1935 O   0  0  0  0  0  0  0  0  0  0  0  0
    3.1747  -51.1611   26.3380 C   0  0  0  0  0  0  0  0  0  0  0  0
    1.5602  -51.0153   18.3953 O   0  0  0  0  0  0  0  0  0  0  0  0
    0.7752  -51.1363   17.1228 C   0  0  0  0  0  0  0  0  0  0  0  0
    1.2470  -52.0550   16.0350 C   0  0  0  0  0  0  0  0  0  0  0  0
    2.5977  -51.8519   15.4151 N   0  3  0  0  0  0  0  0  0  0  0  0
    3.8104  -52.4773   16.0380 C   0  0  0  0  0  0  0  0  0  0  0  0
    5.1612  -52.2742   15.4181 C   0  0  0  0  0  0  0  0  0  0  0  0
    5.2992  -51.4457   14.1753 O   0  0  0  0  0  0  0  0  0  0  0  0
    4.0863  -50.8203   13.5524 C   0  0  0  0  0  0  0  0  0  0  0  0
    2.7356  -51.0234   14.1723 C   0  0  0  0  0  0  0  0  0  0  0  0
   -0.7158  -48.7861   21.9811 H   0  0  0  0  0  0  0  0  0  0  0  0
    0.4843  -48.8205   19.7518 H   0  0  0  0  0  0  0  0  0  0  0  0
   -0.2074  -53.1288   22.3216 H   0  0  0  0  0  0  0  0  0  0  0  0
   -2.2397  -50.7040   23.7188 H   0  0  0  0  0  0  0  0  0  0  0  0
    1.4522  -50.6718   24.1913 H   0  0  0  0  0  0  0  0  0  0  0  0
   -2.2930  -51.9592   26.0749 H   0  0  0  0  0  0  0  0  0  0  0  0
   -1.0331  -52.5161   28.1993 H   0  0  0  0  0  0  0  0  0  0  0  0
    4.9508  -51.7805   27.1270 H   0  0  0  0  0  0  0  0  0  0  0  0
    3.5476  -51.2455   25.3386 H   0  0  0  0  0  0  0  0  0  0  0  0
    3.2614  -50.2080   26.8165 H   0  0  0  0  0  0  0  0  0  0  0  0
    0.7227  -50.1557   16.6978 H   0  0  0  0  0  0  0  0  0  0  0  0
   -0.1428  -51.5839   17.4418 H   0  0  0  0  0  0  0  0  0  0  0  0
    0.5306  -51.9894   15.2429 H   0  0  0  0  0  0  0  0  0  0  0  0
    1.3443  -52.9968   16.5335 H   0  0  0  0  0  0  0  0  0  0  0  0
    3.3981  -51.4437   14.9324 H   0  0  0  0  0  0  0  0  0  0  0  0
    3.6365  -53.5328   16.0606 H   0  0  0  0  0  0  0  0  0  0  0  0
    3.8925  -51.9721   16.9776 H   0  0  0  0  0  0  0  0  0  0  0  0
    5.5436  -53.2461   15.1855 H   0  0  0  0  0  0  0  0  0  0  0  0
    5.6862  -51.7023   16.1544 H   0  0  0  0  0  0  0  0  0  0  0  0
    4.0260  -51.1934   12.5514 H   0  0  0  0  0  0  0  0  0  0  0  0
    4.2589  -49.7717   13.6770 H   0  0  0  0  0  0  0  0  0  0  0  0
    2.1190  -51.4802   13.4266 H   0  0  0  0  0  0  0  0  0  0  0  0
    2.4653  -50.0414   14.5001 H   0  0  0  0  0  0  0  0  0  0  0  0
  1  2  2  0  0  0  0
  2  3  1  0  0  0  0
  2 27  1  0  0  0  0
  3  4  2  0  0  0  0
  3 28  1  0  0  0  0
  4 18  1  0  0  0  0
  4  5  1  0  0  0  0
  5  6  1  0  0  0  0
  5  7  2  0  0  0  0
  7  1  1  0  0  0  0
  7 29  1  0  0  0  0
  8  1  1  0  0  0  0
  8 30  1  0  0  0  0
  9 10  2  0  0  0  0
 10 11  1  0  0  0  0
 10 31  1  0  0  0  0
 11  8  1  0  0  0  0
 11 12  2  0  0  0  0
 12 13  1  0  0  0  0
 12 32  1  0  0  0  0
 13 14  2  0  0  0  0
 13 33  1  0  0  0  0
 14 15  1  0  0  0  0
 14  9  1  0  0  0  0
 16 17  1  0  0  0  0
 16 34  1  0  0  0  0
 17  9  1  0  0  0  0
 17 35  1  0  0  0  0
 17 36  1  0  0  0  0
 18 19  1  0  0  0  0
 19 20  1  0  0  0  0
 19 37  1  0  0  0  0
 19 38  1  0  0  0  0
 20 21  1  0  0  0  0
 20 39  1  0  0  0  0
 20 40  1  0  0  0  0
 21 22  1  0  0  0  0
 21 41  1  0  0  0  0
 22 23  1  0  0  0  0
 22 42  1  0  0  0  0
 22 43  1  0  0  0  0
 23 24  1  0  0  0  0
 23 44  1  0  0  0  0
 23 45  1  0  0  0  0
 24 25  1  0  0  0  0
 25 26  1  0  0  0  0
 25 46  1  0  0  0  0
 25 47  1  0  0  0  0
 26 21  1  0  0  0  0
 26 48  1  0  0  0  0
 26 49  1  0  0  0  0
M  CHG  1  21   1
M  END
>  <minimizedAffinity>
-8.03168

$$$$

 OpenBabel09092411003D

 52 54  0  0  0  0  0  0  0  0999 V2000
   -0.1923  -51.3304   25.2582 C   0  0  0  0  0  0  0  0  0  0  0  0
    1.1915  -51.0860   25.7831 C   0  0  0  0  0  0  0  0  0  0  0  0
    1.6741  -51.8229   26.9972 C   0  0  0  0  0  0  0  0  0  0  0  0
    3.0578  -51.5785   27.5221 Cl  0  0  0  0  0  0  0  0  0  0  0  0
    0.7729  -52.8042   27.6864 C   0  0  0  0  0  0  0  0  0  0  0  0
   -0.6108  -53.0486   27.1615 C   0  0  0  0  0  0  0  0  0  0  0  0
   -1.0935  -52.3117   25.9474 C   0  0  0  0  0  0  0  0  0  0  0  0
   -0.6749  -50.5935   24.0441 N   0  0  0  0  0  0  0  0  0  0  0  0
    0.9200  -51.6707   19.9764 C   0  0  0  0  0  0  0  0  0  0  0  0
    0.5075  -50.2589   20.2705 C   0  0  0  0  0  0  0  0  0  0  0  0
   -0.0241  -49.8998   21.6264 C   0  0  0  0  0  0  0  0  0  0  0  0
   -0.1433  -50.9526   22.6882 C   0  0  0  0  0  0  0  0  0  0  0  0
    0.2692  -52.3644   22.3941 C   0  0  0  0  0  0  0  0  0  0  0  0
    0.8008  -52.7235   21.0382 C   0  0  0  0  0  0  0  0  0  0  0  0
    1.2133  -54.1354   20.7441 F   0  0  0  0  0  0  0  0  0  0  0  0
    0.8908  -51.3694   17.3961 C   0  0  0  0  0  0  0  0  0  0  0  0
    1.4516  -52.0297   18.6205 O   0  0  0  0  0  0  0  0  0  0  0  0
   -2.4772  -52.5561   25.4225 O   0  0  0  0  0  0  0  0  0  0  0  0
   -3.6294  -51.7469   25.9399 C   0  0  0  0  0  0  0  0  0  0  0  0
   -4.3958  -50.8535   25.0102 C   0  0  0  0  0  0  0  0  0  0  0  0
   -5.0701  -51.4310   23.8011 C   0  0  0  0  0  0  0  0  0  0  0  0
   -4.9129  -50.7663   22.4656 N   0  3  0  0  0  0  0  0  0  0  0  0
   -5.9757  -49.8355   21.9614 C   0  0  0  0  0  0  0  0  0  0  0  0
   -5.8185  -49.1709   20.6259 C   0  0  0  0  0  0  0  0  0  0  0  0
   -4.5986  -49.4371   19.7945 O   0  0  0  0  0  0  0  0  0  0  0  0
   -3.5359  -50.3679   20.2987 C   0  0  0  0  0  0  0  0  0  0  0  0
   -3.6931  -51.0325   21.6343 C   0  0  0  0  0  0  0  0  0  0  0  0
    1.8115  -50.4109   25.3089 H   0  0  0  0  0  0  0  0  0  0  0  0
    1.1049  -53.3112   28.5217 H   0  0  0  0  0  0  0  0  0  0  0  0
   -1.2307  -53.7238   27.6357 H   0  0  0  0  0  0  0  0  0  0  0  0
   -1.3406  -49.8741   24.1372 H   0  0  0  0  0  0  0  0  0  0  0  0
    0.5894  -49.5346   19.5400 H   0  0  0  0  0  0  0  0  0  0  0  0
   -0.3078  -48.9284   21.8287 H   0  0  0  0  0  0  0  0  0  0  0  0
    0.1873  -53.0887   23.1246 H   0  0  0  0  0  0  0  0  0  0  0  0
    1.3881  -51.7476   16.5275 H   0  0  0  0  0  0  0  0  0  0  0  0
    1.0407  -50.3119   17.4608 H   0  0  0  0  0  0  0  0  0  0  0  0
   -0.1564  -51.5776   17.3266 H   0  0  0  0  0  0  0  0  0  0  0  0
   -3.2437  -51.1235   26.7193 H   0  0  0  0  0  0  0  0  0  0  0  0
   -4.3482  -52.4903   26.2149 H   0  0  0  0  0  0  0  0  0  0  0  0
   -3.7087  -50.1133   24.6567 H   0  0  0  0  0  0  0  0  0  0  0  0
   -5.2146  -50.5173   25.6114 H   0  0  0  0  0  0  0  0  0  0  0  0
   -6.1186  -51.4536   24.0134 H   0  0  0  0  0  0  0  0  0  0  0  0
   -4.5748  -52.3701   23.6683 H   0  0  0  0  0  0  0  0  0  0  0  0
   -4.2432  -50.0379   22.7132 H   0  0  0  0  0  0  0  0  0  0  0  0
   -6.0710  -49.0540   22.6860 H   0  0  0  0  0  0  0  0  0  0  0  0
   -6.8185  -50.4790   21.8183 H   0  0  0  0  0  0  0  0  0  0  0  0
   -5.8490  -48.1157   20.8005 H   0  0  0  0  0  0  0  0  0  0  0  0
   -6.6098  -49.5965   20.0448 H   0  0  0  0  0  0  0  0  0  0  0  0
   -2.6264  -49.8057   20.3386 H   0  0  0  0  0  0  0  0  0  0  0  0
   -3.5787  -51.1860   19.6103 H   0  0  0  0  0  0  0  0  0  0  0  0
   -2.8483  -50.7440   22.2242 H   0  0  0  0  0  0  0  0  0  0  0  0
   -3.7875  -52.0685   21.3839 H   0  0  0  0  0  0  0  0  0  0  0  0
  1  2  2  0  0  0  0
  2  3  1  0  0  0  0
  2 28  1  0  0  0  0
  3  4  1  0  0  0  0
  3  5  2  0  0  0  0
  5  6  1  0  0  0  0
  5 29  1  0  0  0  0
  6  7  2  0  0  0  0
  6 30  1  0  0  0  0
  7 18  1  0  0  0  0
  7  1  1  0  0  0  0
  8  1  1  0  0  0  0
  8 31  1  0  0  0  0
  9 10  2  0  0  0  0
 10 11  1  0  0  0  0
 10 32  1  0  0  0  0
 11 12  2  0  0  0  0
 11 33  1  0  0  0  0
 12  8  1  0  0  0  0
 12 13  1  0  0  0  0
 13 14  2  0  0  0  0
 13 34  1  0  0  0  0
 14 15  1  0  0  0  0
 14  9  1  0  0  0  0
 16 17  1  0  0  0  0
 16 35  1  0  0  0  0
 16 36  1  0  0  0  0
 16 37  1  0  0  0  0
 17  9  1  0  0  0  0
 18 19  1  0  0  0  0
 19 20  1  0  0  0  0
 19 38  1  0  0  0  0
 19 39  1  0  0  0  0
 20 21  1  0  0  0  0
 20 40  1  0  0  0  0
 20 41  1  0  0  0  0
 21 22  1  0  0  0  0
 21 42  1  0  0  0  0
 21 43  1  0  0  0  0
 22 23  1  0  0  0  0
 22 44  1  0  0  0  0
 23 24  1  0  0  0  0
 23 45  1  0  0  0  0
 23 46  1  0  0  0  0
 24 25  1  0  0  0  0
 24 47  1  0  0  0  0
 24 48  1  0  0  0  0
 25 26  1  0  0  0  0
 26 27  1  0  0  0  0
 26 49  1  0  0  0  0
 26 50  1  0  0  0  0
 27 22  1  0  0  0  0
 27 51  1  0  0  0  0
 27 52  1  0  0  0  0
M  CHG  1  22   1
M  END
>  <minimizedAffinity>
-7.41670

$$$$

 OpenBabel09092411003D

 43 45  0  0  0  0  0  0  0  0999 V2000
   -0.2002  -51.7919   24.3961 C   0  0  0  0  0  0  0  0  0  0  0  0
    1.2404  -51.4060   24.5562 C   0  0  0  0  0  0  0  0  0  0  0  0
    1.8654  -51.3898   25.9196 C   0  0  0  0  0  0  0  0  0  0  0  0
    1.0497  -51.7595   27.1230 C   0  0  0  0  0  0  0  0  0  0  0  0
    1.6748  -51.7432   28.4865 Cl  0  0  0  0  0  0  0  0  0  0  0  0
   -0.3908  -52.1454   26.9629 C   0  0  0  0  0  0  0  0  0  0  0  0
   -1.0158  -52.1617   25.5995 C   0  0  0  0  0  0  0  0  0  0  0  0
   -2.4565  -52.5476   25.4393 N   0  0  0  0  0  0  0  0  0  0  0  0
   -3.4924  -51.4920   25.1890 C   0  0  0  0  0  0  0  0  0  0  0  0
   -3.2841  -50.0102   25.2927 N   0  0  0  0  0  0  0  0  0  0  0  0
   -4.5814  -49.3352   24.9588 C   0  0  0  0  0  0  0  0  0  0  0  0
   -5.5915  -50.3999   24.6487 N   0  0  0  0  0  0  0  0  0  0  0  0
   -4.9184  -51.7328   24.7909 N   0  0  0  0  0  0  0  0  0  0  0  0
   -0.8253  -51.8082   23.0326 O   0  0  0  0  0  0  0  0  0  0  0  0
   -0.2335  -48.7249   20.7503 N   0  3  2  0  0  0  0  0  0  0  0  0
    0.6674  -49.7379   20.1083 C   0  0  0  0  0  0  0  0  0  0  0  0
    0.5554  -51.0162   20.8852 C   0  0  2  0  0  0  0  0  0  0  0  0
    1.2854  -52.2932   20.5914 C   0  0  0  0  0  0  0  0  0  0  0  0
   -0.4148  -50.7932   22.0072 C   0  0  2  0  0  0  0  0  0  0  0  0
   -0.9024  -49.3772   21.9239 C   0  0  0  0  0  0  0  0  0  0  0  0
   -1.5248  -46.9767   19.3269 C   0  0  0  0  0  0  0  0  0  0  0  0
   -0.4310  -47.3084   20.2982 C   0  0  0  0  0  0  0  0  0  0  0  0
    1.8015  -51.1516   23.7283 H   0  0  0  0  0  0  0  0  0  0  0  0
    2.8566  -51.1243   26.0298 H   0  0  0  0  0  0  0  0  0  0  0  0
   -0.9519  -52.3997   27.7908 H   0  0  0  0  0  0  0  0  0  0  0  0
   -2.7222  -53.4937   25.4984 H   0  0  0  0  0  0  0  0  0  0  0  0
   -4.7495  -48.3171   24.9449 H   0  0  0  0  0  0  0  0  0  0  0  0
   -6.5312  -50.2501   24.3962 H   0  0  0  0  0  0  0  0  0  0  0  0
   -0.3673  -47.7616   20.4428 H   0  0  0  0  0  0  0  0  0  0  0  0
    1.6786  -49.3886   20.1277 H   0  0  0  0  0  0  0  0  0  0  0  0
    0.3822  -49.8961   19.0892 H   0  0  0  0  0  0  0  0  0  0  0  0
    1.0763  -51.9273   20.6766 H   0  0  0  0  0  0  0  0  0  0  0  0
    1.2714  -52.4777   19.5375 H   0  0  0  0  0  0  0  0  0  0  0  0
    0.8070  -53.1030   21.1016 H   0  0  0  0  0  0  0  0  0  0  0  0
    2.2985  -52.2099   20.9255 H   0  0  0  0  0  0  0  0  0  0  0  0
   -0.7079  -51.5171   22.7386 H   0  0  0  0  0  0  0  0  0  0  0  0
   -0.6513  -48.8532   22.8224 H   0  0  0  0  0  0  0  0  0  0  0  0
   -1.9655  -49.3566   21.8046 H   0  0  0  0  0  0  0  0  0  0  0  0
   -1.5135  -45.9266   19.1220 H   0  0  0  0  0  0  0  0  0  0  0  0
   -2.4703  -47.2477   19.7483 H   0  0  0  0  0  0  0  0  0  0  0  0
   -1.3709  -47.5192   18.4175 H   0  0  0  0  0  0  0  0  0  0  0  0
   -0.6115  -46.7259   21.1774 H   0  0  0  0  0  0  0  0  0  0  0  0
    0.4608  -47.1003   19.7448 H   0  0  0  0  0  0  0  0  0  0  0  0
  1  2  2  0  0  0  0
  2  3  1  0  0  0  0
  2 23  1  0  0  0  0
  3  4  2  0  0  0  0
  3 24  1  0  0  0  0
  4  5  1  0  0  0  0
  4  6  1  0  0  0  0
  6  7  2  0  0  0  0
  6 25  1  0  0  0  0
  7  8  1  0  0  0  0
  7  1  1  0  0  0  0
  8  9  1  0  0  0  0
  8 26  1  0  0  0  0
  9 10  1  0  0  0  0
 10 11  2  0  0  0  0
 11 12  1  0  0  0  0
 11 27  1  0  0  0  0
 12 13  1  0  0  0  0
 12 28  1  0  0  0  0
 13  9  2  0  0  0  0
 14  1  1  0  0  0  0
 15 16  1  0  0  0  0
 15 29  1  1  0  0  0
 16 17  1  0  0  0  0
 16 30  1  0  0  0  0
 16 31  1  0  0  0  0
 17 18  1  0  0  0  0
 17 19  1  0  0  0  0
 17 32  1  1  0  0  0
 18 33  1  0  0  0  0
 18 34  1  0  0  0  0
 18 35  1  0  0  0  0
 19 14  1  0  0  0  0
 19 20  1  0  0  0  0
 19 36  1  6  0  0  0
 20 15  1  0  0  0  0
 20 37  1  0  0  0  0
 20 38  1  0  0  0  0
 21 22  1  0  0  0  0
 21 39  1  0  0  0  0
 21 40  1  0  0  0  0
 21 41  1  0  0  0  0
 22 15  1  0  0  0  0
 22 42  1  0  0  0  0
 22 43  1  0  0  0  0
M  CHG  1  15   1
M  END
>  <minimizedAffinity>
-7.30537

$$$$

 OpenBabel09092411003D

 48 50  0  0  0  0  0  0  0  0999 V2000
   -0.0915  -52.0291   24.9203 C   0  0  0  0  0  0  0  0  0  0  0  0
    1.3621  -51.7470   25.1606 C   0  0  0  0  0  0  0  0  0  0  0  0
    1.8982  -51.7142   26.5611 C   0  0  0  0  0  0  0  0  0  0  0  0
    3.3517  -51.4321   26.8013 Cl  0  0  0  0  0  0  0  0  0  0  0  0
    0.9808  -51.9636   27.7214 C   0  0  0  0  0  0  0  0  0  0  0  0
   -0.4727  -52.2457   27.4812 C   0  0  0  0  0  0  0  0  0  0  0  0
   -1.0088  -52.2785   26.0806 C   0  0  0  0  0  0  0  0  0  0  0  0
   -2.4623  -52.5606   25.8404 N   0  0  0  0  0  0  0  0  0  0  0  0
   -3.3787  -51.4559   25.4044 C   0  0  0  0  0  0  0  0  0  0  0  0
   -3.5060  -50.1088   26.0517 C   0  0  0  0  0  0  0  0  0  0  0  0
   -4.5346  -49.3248   25.2920 N   0  0  0  0  0  0  0  0  0  0  0  0
   -5.0431  -50.1873   24.1751 N   0  0  0  0  0  0  0  0  0  0  0  0
   -6.0833  -49.8007   23.1659 C   0  0  0  0  0  0  0  0  0  0  0  0
   -4.3286  -51.5045   24.2446 C   0  0  0  0  0  0  0  0  0  0  0  0
   -0.6276  -52.0619   23.5198 O   0  0  0  0  0  0  0  0  0  0  0  0
   -1.1834  -48.3831   22.1387 N   0  0  0  0  0  0  0  0  0  0  0  0
   -1.2842  -49.6006   23.0090 C   0  0  0  0  0  0  0  0  0  0  0  0
   -0.5268  -50.8444   22.6495 C   0  0  2  0  0  0  0  0  0  0  0  0
    0.3315  -50.8707   21.4195 C   0  0  2  0  0  0  0  0  0  0  0  0
    1.0889  -52.1144   21.0599 C   0  0  0  0  0  0  0  0  0  0  0  0
    0.4323  -49.6532   20.5492 C   0  0  0  0  0  0  0  0  0  0  0  0
   -0.3252  -48.4093   20.9088 C   0  0  0  0  0  0  0  0  0  0  0  0
   -0.2244  -47.1918   20.0384 O   0  0  0  0  0  0  0  0  0  0  0  0
   -2.2049  -46.8118   23.9381 C   0  0  0  0  0  0  0  0  0  0  0  0
   -1.9409  -47.1393   22.4983 C   0  0  0  0  0  0  0  0  0  0  0  0
    1.9933  -51.5755   24.3623 H   0  0  0  0  0  0  0  0  0  0  0  0
    1.3497  -51.9411   28.6850 H   0  0  0  0  0  0  0  0  0  0  0  0
   -1.1039  -52.4172   28.2795 H   0  0  0  0  0  0  0  0  0  0  0  0
   -2.8149  -53.4708   25.9689 H   0  0  0  0  0  0  0  0  0  0  0  0
   -2.9785  -49.7792   26.8752 H   0  0  0  0  0  0  0  0  0  0  0  0
   -6.4163  -48.8028   23.3613 H   0  0  0  0  0  0  0  0  0  0  0  0
   -6.9129  -50.4731   23.2333 H   0  0  0  0  0  0  0  0  0  0  0  0
   -5.6628  -49.8504   22.1833 H   0  0  0  0  0  0  0  0  0  0  0  0
   -4.4664  -52.3038   23.6065 H   0  0  0  0  0  0  0  0  0  0  0  0
   -2.3193  -49.8691   23.0458 H   0  0  0  0  0  0  0  0  0  0  0  0
   -0.8242  -49.2882   23.9232 H   0  0  0  0  0  0  0  0  0  0  0  0
   -0.8784  -50.7425   23.6549 H   0  0  0  0  0  0  0  0  0  0  0  0
    0.4152  -51.9072   21.6715 H   0  0  0  0  0  0  0  0  0  0  0  0
    1.7895  -51.8930   20.2821 H   0  0  0  0  0  0  0  0  0  0  0  0
    0.4042  -52.8634   20.7206 H   0  0  0  0  0  0  0  0  0  0  0  0
    1.6132  -52.4741   21.9205 H   0  0  0  0  0  0  0  0  0  0  0  0
    0.1041  -49.9433   19.5730 H   0  0  0  0  0  0  0  0  0  0  0  0
    1.4551  -49.3580   20.6568 H   0  0  0  0  0  0  0  0  0  0  0  0
   -2.7534  -45.8952   24.0006 H   0  0  0  0  0  0  0  0  0  0  0  0
   -1.2747  -46.7069   24.4564 H   0  0  0  0  0  0  0  0  0  0  0  0
   -2.7749  -47.5997   24.3844 H   0  0  0  0  0  0  0  0  0  0  0  0
   -1.3940  -46.3155   22.0894 H   0  0  0  0  0  0  0  0  0  0  0  0
   -2.9186  -47.3244   22.1049 H   0  0  0  0  0  0  0  0  0  0  0  0
  1  2  2  0  0  0  0
  2  3  1  0  0  0  0
  2 26  1  0  0  0  0
  3  4  1  0  0  0  0
  3  5  2  0  0  0  0
  5  6  1  0  0  0  0
  5 27  1  0  0  0  0
  6  7  2  0  0  0  0
  6 28  1  0  0  0  0
  7  8  1  0  0  0  0
  7  1  1  0  0  0  0
  8  9  1  0  0  0  0
  8 29  1  0  0  0  0
  9 10  1  0  0  0  0
 10 11  2  0  0  0  0
 10 30  1  0  0  0  0
 11 12  1  0  0  0  0
 12 13  1  0  0  0  0
 12 14  1  0  0  0  0
 13 31  1  0  0  0  0
 13 32  1  0  0  0  0
 13 33  1  0  0  0  0
 14  9  2  0  0  0  0
 14 34  1  0  0  0  0
 15  1  1  0  0  0  0
 16 17  1  0  0  0  0
 17 18  1  0  0  0  0
 17 35  1  0  0  0  0
 17 36  1  0  0  0  0
 18 15  1  0  0  0  0
 18 19  1  0  0  0  0
 18 37  1  1  0  0  0
 19 20  1  0  0  0  0
 19 21  1  0  0  0  0
 19 38  1  6  0  0  0
 20 39  1  0  0  0  0
 20 40  1  0  0  0  0
 20 41  1  0  0  0  0
 21 22  1  0  0  0  0
 21 42  1  0  0  0  0
 21 43  1  0  0  0  0
 22 23  2  0  0  0  0
 22 16  1  0  0  0  0
 24 25  1  0  0  0  0
 24 44  1  0  0  0  0
 24 45  1  0  0  0  0
 24 46  1  0  0  0  0
 25 16  1  0  0  0  0
 25 47  1  0  0  0  0
 25 48  1  0  0  0  0
M  END
>  <minimizedAffinity>
-7.01493

$$$$

 OpenBabel09092411003D

 49 50  0  0  0  0  0  0  0  0999 V2000
   -1.2849  -50.4075   23.7776 C   0  0  0  0  0  0  0  0  0  0  0  0
   -2.7724  -50.5907   23.7175 N   0  0  0  0  0  0  0  0  0  0  0  0
   -3.4408  -51.5959   24.6078 C   0  0  0  0  0  0  0  0  0  0  0  0
   -4.9284  -51.7792   24.5478 O   0  0  0  0  0  0  0  0  0  0  0  0
   -2.6216  -52.4179   25.5583 N   0  0  0  0  0  0  0  0  0  0  0  0
   -1.1341  -52.2346   25.6184 C   0  0  0  0  0  0  0  0  0  0  0  0
   -0.4658  -51.2294   24.7280 C   0  0  0  0  0  0  0  0  0  0  0  0
    1.0218  -51.0462   24.7881 Cl  0  0  0  0  0  0  0  0  0  0  0  0
   -0.6165  -49.4022   22.8872 O   0  0  0  0  0  0  0  0  0  0  0  0
    1.4546  -52.1766   18.9004 C   0  0  0  0  0  0  0  0  0  0  0  0
    1.8777  -53.4412   19.5871 O   0  0  0  0  0  0  0  0  0  0  0  0
    0.8000  -51.0793   19.6862 N   0  0  0  0  0  0  0  0  0  0  0  0
    0.5048  -51.1031   21.1566 C   0  0  0  0  0  0  0  0  0  0  0  0
   -0.1520  -49.8040   21.5187 C   0  0  2  0  0  0  0  0  0  0  0  0
   -0.2627  -48.9773   20.2720 C   0  0  2  0  0  0  0  0  0  0  0  0
   -0.8573  -47.6037   20.1749 C   0  0  0  0  0  0  0  0  0  0  0  0
    0.3256  -49.7654   19.1394 C   0  0  0  0  0  0  0  0  0  0  0  0
    3.0093  -52.3841   16.8292 C   0  0  0  0  0  0  0  0  0  0  0  0
    1.6860  -52.0093   17.4278 C   0  0  0  0  0  0  0  0  0  0  0  0
   -0.3150  -53.0566   26.5688 N   0  0  0  0  0  0  0  0  0  0  0  0
    0.1225  -54.4379   26.1809 C   0  0  0  0  0  0  0  0  0  0  0  0
    0.7386  -54.6792   24.8347 C   0  0  0  0  0  0  0  0  0  0  0  0
    0.0667  -52.4973   27.9072 C   0  0  0  0  0  0  0  0  0  0  0  0
    1.4844  -52.0839   28.1707 C   0  0  0  0  0  0  0  0  0  0  0  0
   -5.4401  -51.2658   23.9541 H   0  0  0  0  0  0  0  0  0  0  0  0
    1.4149  -51.2159   21.7079 H   0  0  0  0  0  0  0  0  0  0  0  0
   -0.1395  -51.9240   21.3931 H   0  0  0  0  0  0  0  0  0  0  0  0
   -0.4834  -49.5174   22.4949 H   0  0  0  0  0  0  0  0  0  0  0  0
   -0.6868  -47.9974   20.2029 H   0  0  0  0  0  0  0  0  0  0  0  0
   -1.2075  -47.4363   19.1778 H   0  0  0  0  0  0  0  0  0  0  0  0
   -0.1129  -46.8748   20.4185 H   0  0  0  0  0  0  0  0  0  0  0  0
   -1.6757  -47.5201   20.8591 H   0  0  0  0  0  0  0  0  0  0  0  0
    1.1489  -49.2306   18.7140 H   0  0  0  0  0  0  0  0  0  0  0  0
   -0.4075  -49.9233   18.3762 H   0  0  0  0  0  0  0  0  0  0  0  0
    2.9898  -52.1978   15.7757 H   0  0  0  0  0  0  0  0  0  0  0  0
    3.1987  -53.4226   17.0043 H   0  0  0  0  0  0  0  0  0  0  0  0
    3.7834  -51.7993   17.2806 H   0  0  0  0  0  0  0  0  0  0  0  0
    0.9439  -52.5976   16.9297 H   0  0  0  0  0  0  0  0  0  0  0  0
    1.6459  -50.9488   17.2915 H   0  0  0  0  0  0  0  0  0  0  0  0
   -0.7428  -55.0644   26.2413 H   0  0  0  0  0  0  0  0  0  0  0  0
    0.9252  -54.6411   26.8587 H   0  0  0  0  0  0  0  0  0  0  0  0
    0.0097  -54.5014   24.0718 H   0  0  0  0  0  0  0  0  0  0  0  0
    1.0784  -55.6920   24.7743 H   0  0  0  0  0  0  0  0  0  0  0  0
    1.5672  -54.0163   24.6977 H   0  0  0  0  0  0  0  0  0  0  0  0
   -0.1779  -53.2428   28.6347 H   0  0  0  0  0  0  0  0  0  0  0  0
   -0.4709  -51.5732   27.9500 H   0  0  0  0  0  0  0  0  0  0  0  0
    2.1172  -52.9465   28.1501 H   0  0  0  0  0  0  0  0  0  0  0  0
    1.5473  -51.6183   29.1320 H   0  0  0  0  0  0  0  0  0  0  0  0
    1.7999  -51.3920   27.4180 H   0  0  0  0  0  0  0  0  0  0  0  0
  1  2  2  0  0  0  0
  2  3  1  0  0  0  0
  3  4  1  0  0  0  0
  3  5  2  0  0  0  0
  4 25  1  0  0  0  0
  5  6  1  0  0  0  0
  6 20  1  0  0  0  0
  6  7  2  0  0  0  0
  7  8  1  0  0  0  0
  7  1  1  0  0  0  0
  9  1  1  0  0  0  0
 10 11  2  0  0  0  0
 10 12  1  0  0  0  0
 12 13  1  0  0  0  0
 13 14  1  0  0  0  0
 13 26  1  0  0  0  0
 13 27  1  0  0  0  0
 14  9  1  0  0  0  0
 14 15  1  0  0  0  0
 14 28  1  6  0  0  0
 15 16  1  0  0  0  0
 15 17  1  0  0  0  0
 15 29  1  1  0  0  0
 16 30  1  0  0  0  0
 16 31  1  0  0  0  0
 16 32  1  0  0  0  0
 17 12  1  0  0  0  0
 17 33  1  0  0  0  0
 17 34  1  0  0  0  0
 18 19  1  0  0  0  0
 18 35  1  0  0  0  0
 18 36  1  0  0  0  0
 18 37  1  0  0  0  0
 19 10  1  0  0  0  0
 19 38  1  0  0  0  0
 19 39  1  0  0  0  0
 20 21  1  0  0  0  0
 20 23  1  0  0  0  0
 21 22  1  0  0  0  0
 21 40  1  0  0  0  0
 21 41  1  0  0  0  0
 22 42  1  0  0  0  0
 22 43  1  0  0  0  0
 22 44  1  0  0  0  0
 23 24  1  0  0  0  0
 23 45  1  0  0  0  0
 23 46  1  0  0  0  0
 24 47  1  0  0  0  0
 24 48  1  0  0  0  0
 24 49  1  0  0  0  0
M  END
>  <minimizedAffinity>
-6.82179

$$$$

 OpenBabel09092411003D

 51 52  0  0  0  0  0  0  0  0999 V2000
   -0.4651  -51.9960   22.3409 C   0  0  0  0  0  0  0  0  0  0  0  0
    0.4436  -52.9443   21.6163 N   0  0  0  0  0  0  0  0  0  0  0  0
    1.4017  -53.8025   22.3882 C   0  0  0  0  0  0  0  0  0  0  0  0
    2.3103  -54.7507   21.6635 O   0  0  0  0  0  0  0  0  0  0  0  0
    1.4510  -53.7124   23.8846 N   0  0  0  0  0  0  0  0  0  0  0  0
    0.5424  -52.7641   24.6093 C   0  0  0  0  0  0  0  0  0  0  0  0
   -0.4157  -51.9060   23.8375 N   0  0  0  0  0  0  0  0  0  0  0  0
   -1.4231  -51.1379   21.5691 O   0  0  0  0  0  0  0  0  0  0  0  0
   -2.2827  -46.3400   23.3695 C   0  0  0  0  0  0  0  0  0  0  0  0
   -3.1602  -46.9020   24.4484 O   0  0  0  0  0  0  0  0  0  0  0  0
   -1.6290  -47.2584   22.3800 N   0  0  0  0  0  0  0  0  0  0  0  0
   -0.7515  -46.6964   21.3011 C   0  0  0  0  0  0  0  0  0  0  0  0
   -0.0979  -47.6148   20.3116 C   0  0  0  0  0  0  0  0  0  0  0  0
   -0.3217  -49.0953   20.4009 C   0  0  2  0  0  0  0  0  0  0  0  0
    0.3320  -50.0137   19.4113 C   0  0  0  0  0  0  0  0  0  0  0  0
   -1.1992  -49.6573   21.4798 C   0  0  1  0  0  0  0  0  0  0  0  0
   -1.8529  -48.7389   22.4693 C   0  0  0  0  0  0  0  0  0  0  0  0
   -3.2189  -43.9386   23.0431 C   0  0  0  0  0  0  0  0  0  0  0  0
   -2.0589  -44.8595   23.2802 C   0  0  0  0  0  0  0  0  0  0  0  0
    0.5917  -52.6740   26.1057 N   0  0  0  0  0  0  0  0  0  0  0  0
    1.5193  -51.6989   26.7682 C   0  0  0  0  0  0  0  0  0  0  0  0
    1.7292  -51.7532   28.2524 C   0  0  0  0  0  0  0  0  0  0  0  0
   -0.2865  -53.5589   26.9398 C   0  0  0  0  0  0  0  0  0  0  0  0
    0.0898  -54.9939   27.1623 C   0  0  0  0  0  0  0  0  0  0  0  0
    2.2794  -54.8069   20.7287 H   0  0  0  0  0  0  0  0  0  0  0  0
    0.0344  -46.1598   21.7904 H   0  0  0  0  0  0  0  0  0  0  0  0
   -1.4326  -46.1314   20.6996 H   0  0  0  0  0  0  0  0  0  0  0  0
    0.9572  -47.4564   20.3933 H   0  0  0  0  0  0  0  0  0  0  0  0
   -0.5647  -47.3510   19.3856 H   0  0  0  0  0  0  0  0  0  0  0  0
   -0.0503  -50.0572   20.0187 H   0  0  0  0  0  0  0  0  0  0  0  0
    0.7996  -49.4349   18.6424 H   0  0  0  0  0  0  0  0  0  0  0  0
   -0.4070  -50.6537   18.9764 H   0  0  0  0  0  0  0  0  0  0  0  0
    1.0697  -50.6076   19.9092 H   0  0  0  0  0  0  0  0  0  0  0  0
   -0.6578  -49.1690   22.2630 H   0  0  0  0  0  0  0  0  0  0  0  0
   -1.5207  -49.0436   23.4397 H   0  0  0  0  0  0  0  0  0  0  0  0
   -2.8951  -48.8436   22.2508 H   0  0  0  0  0  0  0  0  0  0  0  0
   -2.8705  -42.9275   23.0094 H   0  0  0  0  0  0  0  0  0  0  0  0
   -3.9274  -44.0455   23.8378 H   0  0  0  0  0  0  0  0  0  0  0  0
   -3.6863  -44.1859   22.1129 H   0  0  0  0  0  0  0  0  0  0  0  0
   -1.6095  -44.5588   24.2035 H   0  0  0  0  0  0  0  0  0  0  0  0
   -1.4740  -44.7524   22.3906 H   0  0  0  0  0  0  0  0  0  0  0  0
    1.1499  -50.7200   26.5441 H   0  0  0  0  0  0  0  0  0  0  0  0
    2.4779  -51.9649   26.3744 H   0  0  0  0  0  0  0  0  0  0  0  0
    0.8171  -51.4998   28.7511 H   0  0  0  0  0  0  0  0  0  0  0  0
    2.4929  -51.0572   28.5303 H   0  0  0  0  0  0  0  0  0  0  0  0
    2.0273  -52.7413   28.5345 H   0  0  0  0  0  0  0  0  0  0  0  0
   -1.2514  -53.5607   26.4774 H   0  0  0  0  0  0  0  0  0  0  0  0
   -0.2103  -53.1302   27.9172 H   0  0  0  0  0  0  0  0  0  0  0  0
    0.0456  -55.5224   26.2330 H   0  0  0  0  0  0  0  0  0  0  0  0
   -0.5917  -55.4376   27.8577 H   0  0  0  0  0  0  0  0  0  0  0  0
    1.0838  -55.0452   27.5549 H   0  0  0  0  0  0  0  0  0  0  0  0
  1  2  2  0  0  0  0
  2  3  1  0  0  0  0
  3  4  1  0  0  0  0
  3  5  2  0  0  0  0
  4 25  1  0  0  0  0
  5  6  1  0  0  0  0
  6 20  1  0  0  0  0
  6  7  2  0  0  0  0
  7  1  1  0  0  0  0
  8  1  1  0  0  0  0
  9 10  2  0  0  0  0
  9 11  1  0  0  0  0
 11 12  1  0  0  0  0
 12 13  1  0  0  0  0
 12 26  1  0  0  0  0
 12 27  1  0  0  0  0
 13 14  1  0  0  0  0
 13 28  1  0  0  0  0
 13 29  1  0  0  0  0
 14 15  1  0  0  0  0
 14 16  1  0  0  0  0
 14 30  1  1  0  0  0
 15 31  1  0  0  0  0
 15 32  1  0  0  0  0
 15 33  1  0  0  0  0
 16  8  1  0  0  0  0
 16 17  1  0  0  0  0
 16 34  1  1  0  0  0
 17 11  1  0  0  0  0
 17 35  1  0  0  0  0
 17 36  1  0  0  0  0
 18 19  1  0  0  0  0
 18 37  1  0  0  0  0
 18 38  1  0  0  0  0
 18 39  1  0  0  0  0
 19  9  1  0  0  0  0
 19 40  1  0  0  0  0
 19 41  1  0  0  0  0
 20 21  1  0  0  0  0
 20 23  1  0  0  0  0
 21 22  1  0  0  0  0
 21 42  1  0  0  0  0
 21 43  1  0  0  0  0
 22 44  1  0  0  0  0
 22 45  1  0  0  0  0
 22 46  1  0  0  0  0
 23 24  1  0  0  0  0
 23 47  1  0  0  0  0
 23 48  1  0  0  0  0
 24 49  1  0  0  0  0
 24 50  1  0  0  0  0
 24 51  1  0  0  0  0
M  END
>  <minimizedAffinity>
-6.86969

$$$$

 OpenBabel09092411003D

 50 52  0  0  0  0  0  0  0  0999 V2000
    0.4559  -53.0866   24.8648 C   0  0  0  0  0  0  0  0  0  0  0  0
    1.3381  -52.6197   25.9846 C   0  0  0  0  0  0  0  0  0  0  0  0
    0.7340  -51.9728   27.1956 C   0  0  0  0  0  0  0  0  0  0  0  0
    1.6162  -51.5060   28.3154 Cl  0  0  0  0  0  0  0  0  0  0  0  0
   -0.7524  -51.7927   27.2868 C   0  0  0  0  0  0  0  0  0  0  0  0
   -1.6346  -52.2595   26.1671 C   0  0  0  0  0  0  0  0  0  0  0  0
   -1.0304  -52.9065   24.9561 C   0  0  0  0  0  0  0  0  0  0  0  0
   -3.1209  -52.0794   26.2584 N   0  0  0  0  0  0  0  0  0  0  0  0
   -3.7296  -50.7309   26.0113 C   0  0  0  0  0  0  0  0  0  0  0  0
   -3.6004  -49.5291   26.8996 N   0  0  0  0  0  0  0  0  0  0  0  0
   -4.3653  -48.4029   26.2698 C   0  0  0  0  0  0  0  0  0  0  0  0
   -4.9671  -48.9086   24.9923 N   0  0  0  0  0  0  0  0  0  0  0  0
   -4.5742  -50.3474   24.8325 N   0  0  0  0  0  0  0  0  0  0  0  0
   -4.9585  -51.2451   23.6939 C   0  0  0  0  0  0  0  0  0  0  0  0
   -3.9117  -51.7316   22.7360 C   0  0  0  0  0  0  0  0  0  0  0  0
    1.0601  -53.7335   23.6539 O   0  0  0  0  0  0  0  0  0  0  0  0
    0.8104  -50.9673   18.3354 C   0  0  0  0  0  0  0  0  0  0  0  0
    0.5154  -49.4983   18.2673 O   0  0  0  0  0  0  0  0  0  0  0  0
    0.8728  -51.6589   19.6651 N   0  0  0  0  0  0  0  0  0  0  0  0
    1.1678  -53.1280   19.7332 C   0  0  0  0  0  0  0  0  0  0  0  0
    1.2303  -53.8195   21.0628 C   0  0  0  0  0  0  0  0  0  0  0  0
    0.9977  -53.0420   22.3243 C   0  0  0  0  0  0  0  0  0  0  0  0
    0.7026  -51.5729   22.2561 C   0  0  0  0  0  0  0  0  0  0  0  0
    0.6402  -50.8813   20.9265 C   0  0  0  0  0  0  0  0  0  0  0  0
    2.4339  -51.9000   16.5343 C   0  0  0  0  0  0  0  0  0  0  0  0
    1.0430  -51.7449   17.0740 C   0  0  0  0  0  0  0  0  0  0  0  0
    2.3607  -52.7436   25.9218 H   0  0  0  0  0  0  0  0  0  0  0  0
   -1.1681  -51.3476   28.1200 H   0  0  0  0  0  0  0  0  0  0  0  0
   -1.6374  -53.2277   24.1857 H   0  0  0  0  0  0  0  0  0  0  0  0
   -3.6969  -52.8463   26.4805 H   0  0  0  0  0  0  0  0  0  0  0  0
   -4.4607  -47.4478   26.6489 H   0  0  0  0  0  0  0  0  0  0  0  0
   -5.6851  -50.7150   23.1143 H   0  0  0  0  0  0  0  0  0  0  0  0
   -5.2785  -52.1407   24.1841 H   0  0  0  0  0  0  0  0  0  0  0  0
   -3.5190  -50.9024   22.1855 H   0  0  0  0  0  0  0  0  0  0  0  0
   -4.3479  -52.4353   22.0582 H   0  0  0  0  0  0  0  0  0  0  0  0
   -3.1215  -52.2042   23.2811 H   0  0  0  0  0  0  0  0  0  0  0  0
    2.1182  -53.2743   19.2640 H   0  0  0  0  0  0  0  0  0  0  0  0
    0.3145  -53.5722   19.2648 H   0  0  0  0  0  0  0  0  0  0  0  0
    2.2065  -54.2505   21.1412 H   0  0  0  0  0  0  0  0  0  0  0  0
    0.3975  -54.4905   21.0304 H   0  0  0  0  0  0  0  0  0  0  0  0
    1.6994  -53.6575   22.8475 H   0  0  0  0  0  0  0  0  0  0  0  0
    1.4614  -51.0787   22.8260 H   0  0  0  0  0  0  0  0  0  0  0  0
   -0.3033  -51.5072   22.6149 H   0  0  0  0  0  0  0  0  0  0  0  0
    1.3734  -50.1023   20.9488 H   0  0  0  0  0  0  0  0  0  0  0  0
   -0.3861  -50.5887   20.8494 H   0  0  0  0  0  0  0  0  0  0  0  0
    2.4052  -52.4805   15.6359 H   0  0  0  0  0  0  0  0  0  0  0  0
    3.0448  -52.3954   17.2597 H   0  0  0  0  0  0  0  0  0  0  0  0
    2.8439  -50.9347   16.3222 H   0  0  0  0  0  0  0  0  0  0  0  0
    0.6664  -52.7316   17.2455 H   0  0  0  0  0  0  0  0  0  0  0  0
    0.5539  -51.1547   16.3275 H   0  0  0  0  0  0  0  0  0  0  0  0
  1  2  2  0  0  0  0
  2  3  1  0  0  0  0
  2 27  1  0  0  0  0
  3  4  1  0  0  0  0
  3  5  2  0  0  0  0
  5  6  1  0  0  0  0
  5 28  1  0  0  0  0
  6  8  1  0  0  0  0
  6  7  2  0  0  0  0
  7  1  1  0  0  0  0
  7 29  1  0  0  0  0
  8  9  1  0  0  0  0
  8 30  1  0  0  0  0
  9 10  2  0  0  0  0
 10 11  1  0  0  0  0
 11 12  2  0  0  0  0
 11 31  1  0  0  0  0
 12 13  1  0  0  0  0
 13 14  1  0  0  0  0
 13  9  1  0  0  0  0
 14 15  1  0  0  0  0
 14 32  1  0  0  0  0
 14 33  1  0  0  0  0
 15 34  1  0  0  0  0
 15 35  1  0  0  0  0
 15 36  1  0  0  0  0
 16  1  1  0  0  0  0
 17 18  2  0  0  0  0
 17 19  1  0  0  0  0
 19 20  1  0  0  0  0
 20 21  1  0  0  0  0
 20 37  1  0  0  0  0
 20 38  1  0  0  0  0
 21 22  1  0  0  0  0
 21 39  1  0  0  0  0
 21 40  1  0  0  0  0
 22 16  1  0  0  0  0
 22 23  1  0  0  0  0
 22 41  1  0  0  0  0
 23 24  1  0  0  0  0
 23 42  1  0  0  0  0
 23 43  1  0  0  0  0
 24 19  1  0  0  0  0
 24 44  1  0  0  0  0
 24 45  1  0  0  0  0
 25 26  1  0  0  0  0
 25 46  1  0  0  0  0
 25 47  1  0  0  0  0
 25 48  1  0  0  0  0
 26 17  1  0  0  0  0
 26 49  1  0  0  0  0
 26 50  1  0  0  0  0
M  END
>  <minimizedAffinity>
-7.17103

$$$$

 OpenBabel09092411003D

 52 54  0  0  0  0  0  0  0  0999 V2000
   -1.1472  -49.9132   22.6175 C   0  0  2  0  0  0  0  0  0  0  0  0
   -0.4909  -49.1596   21.4990 C   0  0  0  0  0  0  0  0  0  0  0  0
    0.3492  -49.8903   20.4938 C   0  0  0  0  0  0  0  0  0  0  0  0
    0.5328  -51.3747   20.6072 N   0  0  0  0  0  0  0  0  0  0  0  0
    1.3729  -52.1054   19.6020 C   0  0  0  0  0  0  0  0  0  0  0  0
    1.5566  -53.5898   19.7154 O   0  0  0  0  0  0  0  0  0  0  0  0
   -0.1235  -52.1283   21.7258 C   0  0  0  0  0  0  0  0  0  0  0  0
   -0.9635  -51.3976   22.7309 C   0  0  2  0  0  0  0  0  0  0  0  0
   -1.9873  -49.1825   23.6227 O   0  0  0  0  0  0  0  0  0  0  0  0
   -6.9424  -49.3257   21.8043 C   0  0  0  0  0  0  0  0  0  0  0  0
   -5.7604  -49.3467   22.7277 N   0  0  0  0  0  0  0  0  0  0  0  0
   -4.3233  -49.2003   22.3238 C   0  0  0  0  0  0  0  0  0  0  0  0
   -3.4828  -49.2808   23.5635 C   0  0  0  0  0  0  0  0  0  0  0  0
   -4.4005  -49.4770   24.7338 C   0  0  0  0  0  0  0  0  0  0  0  0
   -5.8082  -49.5177   24.2172 N   0  0  0  0  0  0  0  0  0  0  0  0
    2.0292  -51.3518   18.4835 O   0  0  0  0  0  0  0  0  0  0  0  0
    1.7198  -51.7042   17.0586 C   0  0  0  0  0  0  0  0  0  0  0  0
    0.4056  -50.9894   17.1672 C   0  0  0  0  0  0  0  0  0  0  0  0
    3.0340  -52.4191   16.9501 C   0  0  0  0  0  0  0  0  0  0  0  0
    1.4104  -52.0567   15.6338 C   0  0  0  0  0  0  0  0  0  0  0  0
   -1.6199  -52.1513   23.8495 O   0  0  0  0  0  0  0  0  0  0  0  0
   -0.8860  -52.3683   25.1396 C   0  0  0  0  0  0  0  0  0  0  0  0
   -0.4609  -51.1920   25.9677 C   0  0  0  0  0  0  0  0  0  0  0  0
    0.2730  -51.4090   27.2578 N   0  0  0  0  0  0  0  0  0  0  0  0
    0.5817  -52.8024   27.7198 C   0  0  0  0  0  0  0  0  0  0  0  0
    0.1566  -53.9786   26.8917 C   0  0  0  0  0  0  0  0  0  0  0  0
   -0.5773  -53.7615   25.6016 N   0  0  0  0  0  0  0  0  0  0  0  0
   -0.5495  -49.0315   22.7193 H   0  0  0  0  0  0  0  0  0  0  0  0
    0.1396  -48.4227   21.9512 H   0  0  0  0  0  0  0  0  0  0  0  0
   -1.3192  -48.8094   20.9192 H   0  0  0  0  0  0  0  0  0  0  0  0
    1.3257  -49.4545   20.5321 H   0  0  0  0  0  0  0  0  0  0  0  0
   -0.2035  -49.7796   19.5843 H   0  0  0  0  0  0  0  0  0  0  0  0
    0.6583  -52.6141   22.2714 H   0  0  0  0  0  0  0  0  0  0  0  0
   -0.8313  -52.7516   21.2204 H   0  0  0  0  0  0  0  0  0  0  0  0
   -0.2356  -50.6168   22.8039 H   0  0  0  0  0  0  0  0  0  0  0  0
   -6.6063  -49.1888   20.7977 H   0  0  0  0  0  0  0  0  0  0  0  0
   -7.5928  -48.5206   22.0757 H   0  0  0  0  0  0  0  0  0  0  0  0
   -7.4713  -50.2527   21.8808 H   0  0  0  0  0  0  0  0  0  0  0  0
   -3.9741  -49.0675   21.3618 H   0  0  0  0  0  0  0  0  0  0  0  0
   -4.1137  -49.5680   25.7210 H   0  0  0  0  0  0  0  0  0  0  0  0
    0.3012  -50.5824   18.1512 H   0  0  0  0  0  0  0  0  0  0  0  0
   -0.3916  -51.6781   16.9797 H   0  0  0  0  0  0  0  0  0  0  0  0
    0.3696  -50.1978   16.4482 H   0  0  0  0  0  0  0  0  0  0  0  0
    3.5546  -52.3520   17.8825 H   0  0  0  0  0  0  0  0  0  0  0  0
    3.6231  -51.9675   16.1794 H   0  0  0  0  0  0  0  0  0  0  0  0
    2.8618  -53.4477   16.7109 H   0  0  0  0  0  0  0  0  0  0  0  0
    0.4530  -51.6597   15.3680 H   0  0  0  0  0  0  0  0  0  0  0  0
    1.3981  -53.1210   15.5243 H   0  0  0  0  0  0  0  0  0  0  0  0
    2.1594  -51.6408   14.9928 H   0  0  0  0  0  0  0  0  0  0  0  0
   -0.6734  -50.2334   25.6498 H   0  0  0  0  0  0  0  0  0  0  0  0
    1.0866  -52.9518   28.6074 H   0  0  0  0  0  0  0  0  0  0  0  0
    0.3690  -54.9372   27.2095 H   0  0  0  0  0  0  0  0  0  0  0  0
  1  9  1  0  0  0  0
  1  2  1  0  0  0  0
  1 28  1  1  0  0  0
  2  3  1  0  0  0  0
  2 29  1  0  0  0  0
  2 30  1  0  0  0  0
  3  4  1  0  0  0  0
  3 31  1  0  0  0  0
  3 32  1  0  0  0  0
  4  5  1  0  0  0  0
  4  7  1  0  0  0  0
  5  6  2  0  0  0  0
  5 16  1  0  0  0  0
  7  8  1  0  0  0  0
  7 33  1  0  0  0  0
  7 34  1  0  0  0  0
  8 21  1  0  0  0  0
  8  1  1  0  0  0  0
  8 35  1  1  0  0  0
 10 11  1  0  0  0  0
 10 36  1  0  0  0  0
 10 37  1  0  0  0  0
 10 38  1  0  0  0  0
 11 12  1  0  0  0  0
 12 13  2  0  0  0  0
 12 39  1  0  0  0  0
 13  9  1  0  0  0  0
 13 14  1  0  0  0  0
 14 15  2  0  0  0  0
 14 40  1  0  0  0  0
 15 11  1  0  0  0  0
 16 17  1  0  0  0  0
 17 18  1  0  0  0  0
 17 19  1  0  0  0  0
 17 20  1  0  0  0  0
 18 41  1  0  0  0  0
 18 42  1  0  0  0  0
 18 43  1  0  0  0  0
 19 44  1  0  0  0  0
 19 45  1  0  0  0  0
 19 46  1  0  0  0  0
 20 47  1  0  0  0  0
 20 48  1  0  0  0  0
 20 49  1  0  0  0  0
 21 22  1  0  0  0  0
 22 23  2  0  0  0  0
 23 24  1  0  0  0  0
 23 50  1  0  0  0  0
 24 25  2  0  0  0  0
 25 26  1  0  0  0  0
 25 51  1  0  0  0  0
 26 27  2  0  0  0  0
 26 52  1  0  0  0  0
 27 22  1  0  0  0  0
M  END
>  <minimizedAffinity>
-6.65070

$$$$

 OpenBabel09092411003D

 52 54  0  0  0  0  0  0  0  0999 V2000
    1.3230  -51.6622   17.8451 C   0  0  0  0  0  0  0  0  0  0  0  0
    0.5793  -52.1158   19.0661 N   0  0  0  0  0  0  0  0  0  0  0  0
   -0.4325  -51.2125   19.7068 C   0  0  0  0  0  0  0  0  0  0  0  0
   -0.7005  -49.8556   19.1263 C   0  0  0  0  0  0  0  0  0  0  0  0
   -1.6331  -48.7547   19.5366 N   0  3  0  0  0  0  0  0  0  0  0  0
   -1.4657  -47.6208   18.5691 C   0  0  0  0  0  0  0  0  0  0  0  0
   -0.4297  -48.0208   17.5608 N   0  0  0  0  0  0  0  0  0  0  0  0
    0.0432  -49.4020   17.9051 C   0  0  0  0  0  0  0  0  0  0  0  0
    1.0550  -50.3054   17.2645 N   0  0  0  0  0  0  0  0  0  0  0  0
    2.3348  -52.5655   17.2044 N   0  0  0  0  0  0  0  0  0  0  0  0
    4.4674  -52.3007   15.7444 C   0  0  0  0  0  0  0  0  0  0  0  0
    2.9827  -52.1680   15.9112 C   0  0  0  0  0  0  0  0  0  0  0  0
   -1.1762  -51.6661   20.9280 O   0  0  0  0  0  0  0  0  0  0  0  0
   -0.4916  -51.6759   22.2625 C   0  0  2  0  0  0  0  0  0  0  0  0
   -0.8286  -50.6323   23.2859 C   0  0  0  0  0  0  0  0  0  0  0  0
   -0.1440  -50.6421   24.6206 C   0  0  0  0  0  0  0  0  0  0  0  0
    0.8776  -51.6953   24.9318 N   0  3  2  0  0  0  0  0  0  0  0  0
    1.2146  -52.7389   23.9083 C   0  0  0  0  0  0  0  0  0  0  0  0
    0.5301  -52.7292   22.5737 C   0  0  1  0  0  0  0  0  0  0  0  0
    0.8671  -53.7728   21.5503 O   0  0  0  0  0  0  0  0  0  0  0  0
    1.5623  -51.7052   26.2664 C   0  0  0  0  0  0  0  0  0  0  0  0
    2.6752  -50.8731   25.7015 C   0  0  0  0  0  0  0  0  0  0  0  0
    0.4494  -52.5372   26.8312 C   0  0  0  0  0  0  0  0  0  0  0  0
    2.2470  -51.7149   27.6010 C   0  0  0  0  0  0  0  0  0  0  0  0
   -2.2472  -48.7732   20.3058 H   0  0  0  0  0  0  0  0  0  0  0  0
   -1.9741  -46.7230   18.5930 H   0  0  0  0  0  0  0  0  0  0  0  0
   -0.1153  -47.4730   16.8056 H   0  0  0  0  0  0  0  0  0  0  0  0
    2.5736  -53.4192   17.6326 H   0  0  0  0  0  0  0  0  0  0  0  0
    4.7471  -51.9721   14.7653 H   0  0  0  0  0  0  0  0  0  0  0  0
    4.7505  -53.3247   15.8713 H   0  0  0  0  0  0  0  0  0  0  0  0
    4.9638  -51.7000   16.4776 H   0  0  0  0  0  0  0  0  0  0  0  0
    2.5314  -52.7620   15.1442 H   0  0  0  0  0  0  0  0  0  0  0  0
    2.8243  -51.1105   15.8716 H   0  0  0  0  0  0  0  0  0  0  0  0
   -0.6058  -52.7334   22.3788 H   0  0  0  0  0  0  0  0  0  0  0  0
   -1.8783  -50.7142   23.4765 H   0  0  0  0  0  0  0  0  0  0  0  0
   -0.4795  -49.7259   22.8371 H   0  0  0  0  0  0  0  0  0  0  0  0
   -0.9117  -50.7282   25.3609 H   0  0  0  0  0  0  0  0  0  0  0  0
    0.4295  -49.7389   24.6094 H   0  0  0  0  0  0  0  0  0  0  0  0
    0.8075  -50.7734   25.3625 H   0  0  0  0  0  0  0  0  0  0  0  0
    1.0064  -53.6885   24.3553 H   0  0  0  0  0  0  0  0  0  0  0  0
    2.2337  -52.5232   23.6636 H   0  0  0  0  0  0  0  0  0  0  0  0
    1.4378  -52.5042   22.0538 H   0  0  0  0  0  0  0  0  0  0  0  0
    0.1859  -54.4633   21.5562 H   0  0  0  0  0  0  0  0  0  0  0  0
    2.4793  -50.6687   24.6696 H   0  0  0  0  0  0  0  0  0  0  0  0
    3.5991  -51.4054   25.7905 H   0  0  0  0  0  0  0  0  0  0  0  0
    2.7410  -49.9516   26.2414 H   0  0  0  0  0  0  0  0  0  0  0  0
   -0.2757  -52.7285   26.0679 H   0  0  0  0  0  0  0  0  0  0  0  0
   -0.0141  -52.0114   27.6397 H   0  0  0  0  0  0  0  0  0  0  0  0
    0.8440  -53.4652   27.1889 H   0  0  0  0  0  0  0  0  0  0  0  0
    3.1583  -51.1576   27.5384 H   0  0  0  0  0  0  0  0  0  0  0  0
    2.4646  -52.7239   27.8829 H   0  0  0  0  0  0  0  0  0  0  0  0
    1.6065  -51.2701   28.3337 H   0  0  0  0  0  0  0  0  0  0  0  0
  1  2  2  0  0  0  0
  2  3  1  0  0  0  0
  3 13  1  0  0  0  0
  3  4  2  0  0  0  0
  4  5  1  0  0  0  0
  5  6  2  0  0  0  0
  5 25  1  0  0  0  0
  6  7  1  0  0  0  0
  6 26  1  0  0  0  0
  7  8  1  0  0  0  0
  7 27  1  0  0  0  0
  8  9  2  0  0  0  0
  8  4  1  0  0  0  0
  9  1  1  0  0  0  0
 10  1  1  0  0  0  0
 10 28  1  0  0  0  0
 11 12  1  0  0  0  0
 11 29  1  0  0  0  0
 11 30  1  0  0  0  0
 11 31  1  0  0  0  0
 12 10  1  0  0  0  0
 12 32  1  0  0  0  0
 12 33  1  0  0  0  0
 14 13  1  0  0  0  0
 14 15  1  0  0  0  0
 14 34  1  1  0  0  0
 15 16  1  0  0  0  0
 15 35  1  0  0  0  0
 15 36  1  0  0  0  0
 16 17  1  0  0  0  0
 16 37  1  0  0  0  0
 16 38  1  0  0  0  0
 17 21  1  0  0  0  0
 17 18  1  0  0  0  0
 17 39  1  6  0  0  0
 18 19  1  0  0  0  0
 18 40  1  0  0  0  0
 18 41  1  0  0  0  0
 19 20  1  0  0  0  0
 19 14  1  0  0  0  0
 19 42  1  6  0  0  0
 20 43  1  0  0  0  0
 21 22  1  0  0  0  0
 21 23  1  0  0  0  0
 21 24  1  0  0  0  0
 22 44  1  0  0  0  0
 22 45  1  0  0  0  0
 22 46  1  0  0  0  0
 23 47  1  0  0  0  0
 23 48  1  0  0  0  0
 23 49  1  0  0  0  0
 24 50  1  0  0  0  0
 24 51  1  0  0  0  0
 24 52  1  0  0  0  0
M  CHG  2   5   1  17   1
M  END
>  <minimizedAffinity>
-7.38314

$$$$

 OpenBabel09092411003D

 57 59  0  0  0  0  0  0  0  0999 V2000
    1.6285  -52.3636   15.9138 N   0  0  0  0  0  0  0  0  0  0  0  0
    1.6844  -52.2884   17.4109 C   0  0  0  0  0  0  0  0  0  0  0  0
    2.8760  -51.6776   18.0872 O   0  0  0  0  0  0  0  0  0  0  0  0
    0.5490  -52.8240   18.2317 N   0  0  0  0  0  0  0  0  0  0  0  0
    2.5117  -50.7606   14.0698 C   0  0  0  0  0  0  0  0  0  0  0  0
    3.6472  -50.2250   13.2491 C   0  0  0  0  0  0  0  0  0  0  0  0
    3.3949  -49.1575   12.2259 Cl  0  0  0  0  0  0  0  0  0  0  0  0
    5.0351  -50.7568   13.4515 C   0  0  0  0  0  0  0  0  0  0  0  0
    5.2875  -51.8242   14.4747 C   0  0  0  0  0  0  0  0  0  0  0  0
    4.1519  -52.3598   15.2955 C   0  0  0  0  0  0  0  0  0  0  0  0
    2.7641  -51.8280   15.0930 C   0  0  0  0  0  0  0  0  0  0  0  0
    0.6417  -49.0628   14.6785 C   0  0  0  0  0  0  0  0  0  0  0  0
    1.1238  -50.2288   13.8674 O   0  0  0  0  0  0  0  0  0  0  0  0
    0.6049  -52.7489   19.7288 C   0  0  1  0  0  0  0  0  0  0  0  0
    1.4184  -53.7457   20.4999 C   0  0  0  0  0  0  0  0  0  0  0  0
    1.4743  -53.6705   21.9970 C   0  0  0  0  0  0  0  0  0  0  0  0
    0.7168  -52.5985   22.7229 N   0  3  2  0  0  0  0  0  0  0  0  0
   -0.0967  -51.6016   21.9518 C   0  0  0  0  0  0  0  0  0  0  0  0
   -0.1526  -51.6768   20.4547 C   0  0  0  0  0  0  0  0  0  0  0  0
    0.7728  -52.5233   24.2200 C   0  0  2  0  0  0  0  0  0  0  0  0
    1.4799  -51.3814   24.8877 C   0  0  0  0  0  0  0  0  0  0  0  0
    1.5359  -51.3062   26.3848 C   0  0  0  0  0  0  0  0  0  0  0  0
    0.8847  -52.3730   27.2141 N   0  3  2  0  0  0  0  0  0  0  0  0
    0.9407  -52.2978   28.7112 C   0  0  0  0  0  0  0  0  0  0  0  0
    0.1776  -53.5150   26.5464 C   0  0  0  0  0  0  0  0  0  0  0  0
    0.1216  -53.5902   25.0494 C   0  0  0  0  0  0  0  0  0  0  0  0
    0.8465  -52.7645   15.4699 H   0  0  0  0  0  0  0  0  0  0  0  0
   -0.2330  -53.2249   17.7878 H   0  0  0  0  0  0  0  0  0  0  0  0
    5.8163  -50.3883   12.8868 H   0  0  0  0  0  0  0  0  0  0  0  0
    6.2424  -52.1901   14.6140 H   0  0  0  0  0  0  0  0  0  0  0  0
    4.3255  -53.0942   15.9995 H   0  0  0  0  0  0  0  0  0  0  0  0
   -0.3635  -48.8253   14.3992 H   0  0  0  0  0  0  0  0  0  0  0  0
    1.2716  -48.2171   14.4968 H   0  0  0  0  0  0  0  0  0  0  0  0
    0.6732  -49.3141   15.7181 H   0  0  0  0  0  0  0  0  0  0  0  0
    0.0173  -53.5245   20.1738 H   0  0  0  0  0  0  0  0  0  0  0  0
    2.4255  -53.6605   20.1485 H   0  0  0  0  0  0  0  0  0  0  0  0
    0.9109  -54.6701   20.3188 H   0  0  0  0  0  0  0  0  0  0  0  0
    2.5044  -53.5544   22.2622 H   0  0  0  0  0  0  0  0  0  0  0  0
    0.9850  -54.5702   22.3069 H   0  0  0  0  0  0  0  0  0  0  0  0
    0.2706  -52.9691   21.8839 H   0  0  0  0  0  0  0  0  0  0  0  0
    0.2864  -50.6334   22.1984 H   0  0  0  0  0  0  0  0  0  0  0  0
   -1.1011  -51.8229   22.2469 H   0  0  0  0  0  0  0  0  0  0  0  0
    0.2075  -50.7396   20.0847 H   0  0  0  0  0  0  0  0  0  0  0  0
   -1.1754  -51.9227   20.2588 H   0  0  0  0  0  0  0  0  0  0  0  0
    1.0795  -51.5507   23.8962 H   0  0  0  0  0  0  0  0  0  0  0  0
    1.0041  -50.4841   24.5510 H   0  0  0  0  0  0  0  0  0  0  0  0
    2.5027  -51.5297   24.6105 H   0  0  0  0  0  0  0  0  0  0  0  0
    1.0831  -50.3780   26.6646 H   0  0  0  0  0  0  0  0  0  0  0  0
    2.5770  -51.4297   26.5985 H   0  0  0  0  0  0  0  0  0  0  0  0
   -0.0630  -52.5816   26.8998 H   0  0  0  0  0  0  0  0  0  0  0  0
    1.9414  -52.0785   29.0201 H   0  0  0  0  0  0  0  0  0  0  0  0
    0.6364  -53.2356   29.1271 H   0  0  0  0  0  0  0  0  0  0  0  0
    0.2842  -51.5257   29.0543 H   0  0  0  0  0  0  0  0  0  0  0  0
   -0.8346  -53.4965   26.8928 H   0  0  0  0  0  0  0  0  0  0  0  0
    0.7734  -54.3628   26.8131 H   0  0  0  0  0  0  0  0  0  0  0  0
   -0.9137  -53.6026   24.7793 H   0  0  0  0  0  0  0  0  0  0  0  0
    0.6989  -54.4627   24.8252 H   0  0  0  0  0  0  0  0  0  0  0  0
  1  2  1  0  0  0  0
  1 27  1  0  0  0  0
  2  3  2  0  0  0  0
  2  4  1  0  0  0  0
  4 14  1  0  0  0  0
  4 28  1  0  0  0  0
  5  6  2  0  0  0  0
  6  7  1  0  0  0  0
  6  8  1  0  0  0  0
  8  9  2  0  0  0  0
  8 29  1  0  0  0  0
  9 10  1  0  0  0  0
  9 30  1  0  0  0  0
 10 11  2  0  0  0  0
 10 31  1  0  0  0  0
 11  1  1  0  0  0  0
 11  5  1  0  0  0  0
 12 13  1  0  0  0  0
 12 32  1  0  0  0  0
 12 33  1  0  0  0  0
 12 34  1  0  0  0  0
 13  5  1  0  0  0  0
 14 15  1  0  0  0  0
 14 35  1  1  0  0  0
 15 16  1  0  0  0  0
 15 36  1  0  0  0  0
 15 37  1  0  0  0  0
 16 17  1  0  0  0  0
 16 38  1  0  0  0  0
 16 39  1  0  0  0  0
 17 20  1  0  0  0  0
 17 18  1  0  0  0  0
 17 40  1  1  0  0  0
 18 19  1  0  0  0  0
 18 41  1  0  0  0  0
 18 42  1  0  0  0  0
 19 14  1  0  0  0  0
 19 43  1  0  0  0  0
 19 44  1  0  0  0  0
 20 21  1  0  0  0  0
 20 45  1  1  0  0  0
 21 22  1  0  0  0  0
 21 46  1  0  0  0  0
 21 47  1  0  0  0  0
 22 23  1  0  0  0  0
 22 48  1  0  0  0  0
 22 49  1  0  0  0  0
 23 24  1  0  0  0  0
 23 25  1  0  0  0  0
 23 50  1  1  0  0  0
 24 51  1  0  0  0  0
 24 52  1  0  0  0  0
 24 53  1  0  0  0  0
 25 26  1  0  0  0  0
 25 54  1  0  0  0  0
 25 55  1  0  0  0  0
 26 20  1  0  0  0  0
 26 56  1  0  0  0  0
 26 57  1  0  0  0  0
M  CHG  2  17   1  23   1
M  END
>  <minimizedAffinity>
-7.69913

$$$$

 OpenBabel09092411003D

 56 59  0  0  0  0  0  0  0  0999 V2000
    0.0814  -52.4760   23.7310 C   0  0  0  0  0  0  0  0  0  0  0  0
    1.1277  -52.9113   24.7137 N   0  0  0  0  0  0  0  0  0  0  0  0
    0.7699  -53.0932   26.1590 C   0  0  0  0  0  0  0  0  0  0  0  0
   -0.6343  -52.8397   26.6216 C   0  0  0  0  0  0  0  0  0  0  0  0
   -1.6806  -52.4043   25.6390 C   0  0  0  0  0  0  0  0  0  0  0  0
   -1.3227  -52.2224   24.1937 N   0  0  0  0  0  0  0  0  0  0  0  0
    1.1549  -51.9303   19.3951 N   0  3  0  0  0  0  0  0  0  0  0  0
    1.1255  -53.3056   19.9932 C   0  0  0  0  0  0  0  0  0  0  0  0
    0.7677  -53.4875   21.4385 C   0  0  0  0  0  0  0  0  0  0  0  0
    0.4392  -52.2941   22.2857 N   0  0  0  0  0  0  0  0  0  0  0  0
    0.4686  -50.9188   21.6877 C   0  0  0  0  0  0  0  0  0  0  0  0
    0.8265  -50.7369   20.2424 C   0  0  0  0  0  0  0  0  0  0  0  0
    2.5862  -51.2028   13.6140 C   0  0  0  0  0  0  0  0  0  0  0  0
    2.2284  -51.3847   15.0593 N   0  3  1  0  0  0  0  0  0  0  0  0
    3.1439  -52.1501   15.9680 C   0  0  0  0  0  0  0  0  0  0  0  0
    2.7861  -52.3320   17.4133 C   0  0  0  0  0  0  0  0  0  0  0  0
    1.5127  -51.7484   17.9499 C   0  0  1  0  0  0  0  0  0  0  0  0
    0.5972  -50.9830   17.0411 C   0  0  0  0  0  0  0  0  0  0  0  0
    0.9550  -50.8011   15.5958 C   0  0  0  0  0  0  0  0  0  0  0  0
   -3.0848  -52.1508   26.1016 N   0  0  0  0  0  0  0  0  0  0  0  0
   -3.7311  -50.8220   25.8435 C   0  0  0  0  0  0  0  0  0  0  0  0
   -3.5027  -49.6805   26.7896 C   0  0  0  0  0  0  0  0  0  0  0  0
   -4.1490  -48.3517   26.5314 C   0  0  0  0  0  0  0  0  0  0  0  0
   -5.0236  -48.1644   25.3272 C   0  0  0  0  0  0  0  0  0  0  0  0
   -5.2519  -49.3058   24.3812 C   0  0  0  0  0  0  0  0  0  0  0  0
   -6.1265  -49.1185   23.1770 Cl  0  0  0  0  0  0  0  0  0  0  0  0
   -4.6056  -50.6346   24.6394 C   0  0  0  0  0  0  0  0  0  0  0  0
   -4.8340  -51.7761   23.6933 Cl  0  0  0  0  0  0  0  0  0  0  0  0
    1.4898  -53.3927   26.8351 H   0  0  0  0  0  0  0  0  0  0  0  0
   -0.8805  -52.9649   27.6160 H   0  0  0  0  0  0  0  0  0  0  0  0
    0.9702  -52.2138   18.4329 H   0  0  0  0  0  0  0  0  0  0  0  0
    2.1032  -53.7202   19.8625 H   0  0  0  0  0  0  0  0  0  0  0  0
    0.3169  -53.7806   19.4780 H   0  0  0  0  0  0  0  0  0  0  0  0
    1.5981  -53.9769   21.9031 H   0  0  0  0  0  0  0  0  0  0  0  0
   -0.1582  -54.0222   21.3973 H   0  0  0  0  0  0  0  0  0  0  0  0
    1.1758  -50.3504   22.2549 H   0  0  0  0  0  0  0  0  0  0  0  0
   -0.5554  -50.6111   21.7281 H   0  0  0  0  0  0  0  0  0  0  0  0
    1.6811  -50.0936   20.2144 H   0  0  0  0  0  0  0  0  0  0  0  0
   -0.0801  -50.3695   19.8089 H   0  0  0  0  0  0  0  0  0  0  0  0
    3.5212  -51.6834   13.4148 H   0  0  0  0  0  0  0  0  0  0  0  0
    2.6682  -50.1585   13.3956 H   0  0  0  0  0  0  0  0  0  0  0  0
    1.8244  -51.6367   13.0006 H   0  0  0  0  0  0  0  0  0  0  0  0
    2.8416  -52.0552   15.5227 H   0  0  0  0  0  0  0  0  0  0  0  0
    4.0903  -51.6513   15.9445 H   0  0  0  0  0  0  0  0  0  0  0  0
    3.1025  -53.1454   15.5773 H   0  0  0  0  0  0  0  0  0  0  0  0
    3.5851  -51.9082   17.9850 H   0  0  0  0  0  0  0  0  0  0  0  0
    2.6274  -53.3869   17.4965 H   0  0  0  0  0  0  0  0  0  0  0  0
    1.2691  -51.1497   18.8026 H   0  0  0  0  0  0  0  0  0  0  0  0
    0.4947  -50.0036   17.4595 H   0  0  0  0  0  0  0  0  0  0  0  0
   -0.2792  -51.5956   17.0022 H   0  0  0  0  0  0  0  0  0  0  0  0
    0.9999  -49.7468   15.4190 H   0  0  0  0  0  0  0  0  0  0  0  0
    0.1958  -51.3539   15.0830 H   0  0  0  0  0  0  0  0  0  0  0  0
   -3.5822  -52.8565   26.5746 H   0  0  0  0  0  0  0  0  0  0  0  0
   -2.9010  -49.8094   27.6181 H   0  0  0  0  0  0  0  0  0  0  0  0
   -3.9919  -47.5664   27.1822 H   0  0  0  0  0  0  0  0  0  0  0  0
   -5.4682  -47.2502   25.1496 H   0  0  0  0  0  0  0  0  0  0  0  0
  1  2  2  0  0  0  0
  2  3  1  0  0  0  0
  3  4  2  0  0  0  0
  3 29  1  0  0  0  0
  4  5  1  0  0  0  0
  4 30  1  0  0  0  0
  5 20  1  0  0  0  0
  5  6  2  0  0  0  0
  6  1  1  0  0  0  0
  7  8  1  0  0  0  0
  7 31  1  0  0  0  0
  8  9  1  0  0  0  0
  8 32  1  0  0  0  0
  8 33  1  0  0  0  0
  9 10  1  0  0  0  0
  9 34  1  0  0  0  0
  9 35  1  0  0  0  0
 10  1  1  0  0  0  0
 10 11  1  0  0  0  0
 11 12  1  0  0  0  0
 11 36  1  0  0  0  0
 11 37  1  0  0  0  0
 12  7  1  0  0  0  0
 12 38  1  0  0  0  0
 12 39  1  0  0  0  0
 13 14  1  0  0  0  0
 13 40  1  0  0  0  0
 13 41  1  0  0  0  0
 13 42  1  0  0  0  0
 14 15  1  0  0  0  0
 14 43  1  6  0  0  0
 15 16  1  0  0  0  0
 15 44  1  0  0  0  0
 15 45  1  0  0  0  0
 16 17  1  0  0  0  0
 16 46  1  0  0  0  0
 16 47  1  0  0  0  0
 17  7  1  0  0  0  0
 17 18  1  0  0  0  0
 17 48  1  1  0  0  0
 18 19  1  0  0  0  0
 18 49  1  0  0  0  0
 18 50  1  0  0  0  0
 19 14  1  0  0  0  0
 19 51  1  0  0  0  0
 19 52  1  0  0  0  0
 20 21  1  0  0  0  0
 20 53  1  0  0  0  0
 21 22  2  0  0  0  0
 22 23  1  0  0  0  0
 22 54  1  0  0  0  0
 23 24  2  0  0  0  0
 23 55  1  0  0  0  0
 24 25  1  0  0  0  0
 24 56  1  0  0  0  0
 25 26  1  0  0  0  0
 25 27  2  0  0  0  0
 27 28  1  0  0  0  0
 27 21  1  0  0  0  0
M  CHG  2   7   1  14   1
M  END
>  <minimizedAffinity>
-8.40517

$$$$

 OpenBabel09092411003D

 62 65  0  0  0  0  0  0  0  0999 V2000
   -0.3529  -50.3790   21.0970 C   0  0  0  0  0  0  0  0  0  0  0  0
    0.6926  -49.9824   20.0972 C   0  0  0  0  0  0  0  0  0  0  0  0
    0.3568  -49.9453   18.6358 C   0  0  0  0  0  0  0  0  0  0  0  0
   -1.0245  -50.3047   18.1742 C   0  0  0  0  0  0  0  0  0  0  0  0
   -2.0699  -50.7012   19.1740 N   0  0  0  0  0  0  0  0  0  0  0  0
   -1.7341  -50.7384   20.6355 C   0  0  0  0  0  0  0  0  0  0  0  0
   -1.3602  -50.2675   16.7127 N   0  0  0  0  0  0  0  0  0  0  0  0
   -0.2676  -50.3632   15.6895 C   0  0  0  0  0  0  0  0  0  0  0  0
   -0.6034  -50.3260   14.2280 C   0  0  0  0  0  0  0  0  0  0  0  0
   -2.0318  -50.1931   13.7898 N   0  3  0  0  0  0  0  0  0  0  0  0
   -3.1244  -50.0973   14.8130 C   0  0  0  0  0  0  0  0  0  0  0  0
   -2.7886  -50.1345   16.2745 C   0  0  0  0  0  0  0  0  0  0  0  0
   -2.3676  -50.1559   12.3283 C   0  0  2  0  0  0  0  0  0  0  0  0
   -2.7449  -51.4192   11.6131 C   0  0  0  0  0  0  0  0  0  0  0  0
   -3.0806  -51.3820   10.1515 C   0  0  0  0  0  0  0  0  0  0  0  0
   -3.0390  -50.0814    9.4053 N   0  3  1  0  0  0  0  0  0  0  0  0
   -3.3748  -50.0442    7.9439 C   0  0  0  0  0  0  0  0  0  0  0  0
   -2.6617  -48.8181   10.1207 C   0  0  0  0  0  0  0  0  0  0  0  0
   -2.3260  -48.8553   11.5821 C   0  0  0  0  0  0  0  0  0  0  0  0
    0.6385  -51.6303   23.1468 C   0  0  0  0  0  0  0  0  0  0  0  0
    0.9585  -52.8072   22.2736 O   0  0  0  0  0  0  0  0  0  0  0  0
   -0.0171  -50.4162   22.5586 N   0  0  0  0  0  0  0  0  0  0  0  0
   -0.6934  -52.7503   28.0429 C   0  0  0  0  0  0  0  0  0  0  0  0
    0.3083  -52.2275   27.0563 C   0  0  0  0  0  0  0  0  0  0  0  0
    1.6457  -51.7419   27.5312 C   0  0  0  0  0  0  0  0  0  0  0  0
    2.6474  -51.2191   26.5447 C   0  0  0  0  0  0  0  0  0  0  0  0
    2.3117  -51.1819   25.0832 C   0  0  0  0  0  0  0  0  0  0  0  0
    0.9743  -51.6675   24.6083 C   0  0  0  0  0  0  0  0  0  0  0  0
   -0.0274  -52.1903   25.5949 C   0  0  0  0  0  0  0  0  0  0  0  0
   -1.3648  -52.6759   25.1199 Cl  0  0  0  0  0  0  0  0  0  0  0  0
    1.6429  -49.7351   20.4148 H   0  0  0  0  0  0  0  0  0  0  0  0
    1.0761  -49.6725   17.9479 H   0  0  0  0  0  0  0  0  0  0  0  0
   -2.4533  -51.0113   21.3234 H   0  0  0  0  0  0  0  0  0  0  0  0
    0.2409  -51.2879   15.8662 H   0  0  0  0  0  0  0  0  0  0  0  0
    0.2876  -49.4605   15.8374 H   0  0  0  0  0  0  0  0  0  0  0  0
   -0.2332  -51.2354   13.8028 H   0  0  0  0  0  0  0  0  0  0  0  0
   -0.1583  -49.4111   13.8966 H   0  0  0  0  0  0  0  0  0  0  0  0
   -1.8481  -51.1432   14.1122 H   0  0  0  0  0  0  0  0  0  0  0  0
   -3.7925  -50.9125   14.6287 H   0  0  0  0  0  0  0  0  0  0  0  0
   -3.5060  -49.1074   14.6734 H   0  0  0  0  0  0  0  0  0  0  0  0
   -3.3184  -50.9650   16.6921 H   0  0  0  0  0  0  0  0  0  0  0  0
   -3.0600  -49.1568   16.6142 H   0  0  0  0  0  0  0  0  0  0  0  0
   -3.2760  -50.3139   11.7854 H   0  0  0  0  0  0  0  0  0  0  0  0
   -3.6018  -51.8152   12.1169 H   0  0  0  0  0  0  0  0  0  0  0  0
   -1.8452  -51.9975   11.6442 H   0  0  0  0  0  0  0  0  0  0  0  0
   -4.0757  -51.7627   10.0533 H   0  0  0  0  0  0  0  0  0  0  0  0
   -2.2909  -51.9481    9.7033 H   0  0  0  0  0  0  0  0  0  0  0  0
   -2.4019  -49.5928    8.7762 H   0  0  0  0  0  0  0  0  0  0  0  0
   -4.2910  -50.5704    7.7750 H   0  0  0  0  0  0  0  0  0  0  0  0
   -2.5888  -50.5082    7.3854 H   0  0  0  0  0  0  0  0  0  0  0  0
   -3.4841  -49.0275    7.6288 H   0  0  0  0  0  0  0  0  0  0  0  0
   -3.4843  -48.1429   10.0099 H   0  0  0  0  0  0  0  0  0  0  0  0
   -1.7347  -48.5435    9.6624 H   0  0  0  0  0  0  0  0  0  0  0  0
   -3.0104  -48.1954   12.0731 H   0  0  0  0  0  0  0  0  0  0  0  0
   -1.2889  -48.5928   11.6030 H   0  0  0  0  0  0  0  0  0  0  0  0
   -0.2270  -49.6437   23.1317 H   0  0  0  0  0  0  0  0  0  0  0  0
   -0.2819  -52.7005   29.0294 H   0  0  0  0  0  0  0  0  0  0  0  0
   -0.9303  -53.7665   27.8062 H   0  0  0  0  0  0  0  0  0  0  0  0
   -1.5825  -52.1568   27.9970 H   0  0  0  0  0  0  0  0  0  0  0  0
    1.8767  -51.7675   28.5367 H   0  0  0  0  0  0  0  0  0  0  0  0
    3.5675  -50.8850   26.8715 H   0  0  0  0  0  0  0  0  0  0  0  0
    3.0009  -50.8222   24.4044 H   0  0  0  0  0  0  0  0  0  0  0  0
  1  2  2  0  0  0  0
  2  3  1  0  0  0  0
  2 31  1  0  0  0  0
  3  4  2  0  0  0  0
  3 32  1  0  0  0  0
  4  7  1  0  0  0  0
  4  5  1  0  0  0  0
  5  6  2  0  0  0  0
  6  1  1  0  0  0  0
  6 33  1  0  0  0  0
  7  8  1  0  0  0  0
  8  9  1  0  0  0  0
  8 34  1  0  0  0  0
  8 35  1  0  0  0  0
  9 10  1  0  0  0  0
  9 36  1  0  0  0  0
  9 37  1  0  0  0  0
 10 13  1  0  0  0  0
 10 11  1  0  0  0  0
 10 38  1  0  0  0  0
 11 12  1  0  0  0  0
 11 39  1  0  0  0  0
 11 40  1  0  0  0  0
 12  7  1  0  0  0  0
 12 41  1  0  0  0  0
 12 42  1  0  0  0  0
 13 14  1  0  0  0  0
 13 43  1  1  0  0  0
 14 15  1  0  0  0  0
 14 44  1  0  0  0  0
 14 45  1  0  0  0  0
 15 16  1  0  0  0  0
 15 46  1  0  0  0  0
 15 47  1  0  0  0  0
 16 17  1  0  0  0  0
 16 18  1  0  0  0  0
 16 48  1  6  0  0  0
 17 49  1  0  0  0  0
 17 50  1  0  0  0  0
 17 51  1  0  0  0  0
 18 19  1  0  0  0  0
 18 52  1  0  0  0  0
 18 53  1  0  0  0  0
 19 13  1  0  0  0  0
 19 54  1  0  0  0  0
 19 55  1  0  0  0  0
 20 21  2  0  0  0  0
 20 22  1  0  0  0  0
 22  1  1  0  0  0  0
 22 56  1  0  0  0  0
 23 24  1  0  0  0  0
 23 57  1  0  0  0  0
 23 58  1  0  0  0  0
 23 59  1  0  0  0  0
 24 25  2  0  0  0  0
 25 26  1  0  0  0  0
 25 60  1  0  0  0  0
 26 27  2  0  0  0  0
 26 61  1  0  0  0  0
 27 28  1  0  0  0  0
 27 62  1  0  0  0  0
 28 20  1  0  0  0  0
 28 29  2  0  0  0  0
 29 30  1  0  0  0  0
 29 24  1  0  0  0  0
M  CHG  2  10   1  16   1
M  END
>  <minimizedAffinity>
-7.84320

$$$$

 OpenBabel09092411003D

 65 68  0  0  0  0  0  0  0  0999 V2000
   -1.0843  -50.3902   15.4823 C   0  0  0  0  0  0  0  0  0  0  0  0
    0.2996  -50.7343   15.9472 C   0  0  0  0  0  0  0  0  0  0  0  0
    0.5737  -50.9260   17.4094 C   0  0  0  0  0  0  0  0  0  0  0  0
   -0.5362  -50.7736   18.4068 C   0  0  0  0  0  0  0  0  0  0  0  0
   -1.9203  -50.4295   17.9419 N   0  0  0  0  0  0  0  0  0  0  0  0
   -2.1943  -50.2378   16.4797 C   0  0  0  0  0  0  0  0  0  0  0  0
   -0.2622  -50.9653   19.8690 N   0  0  0  0  0  0  0  0  0  0  0  0
   -0.6000  -49.8769   20.8444 C   0  0  0  0  0  0  0  0  0  0  0  0
   -0.3260  -50.0686   22.3066 C   0  0  0  0  0  0  0  0  0  0  0  0
    0.2860  -51.3486   22.7935 N   0  3  0  0  0  0  0  0  0  0  0  0
    0.6239  -52.4370   21.8181 C   0  0  0  0  0  0  0  0  0  0  0  0
    0.3498  -52.2454   20.3559 C   0  0  0  0  0  0  0  0  0  0  0  0
    0.5600  -51.5403   24.2557 C   0  0  1  0  0  0  0  0  0  0  0  0
    1.8829  -51.1294   24.8310 C   0  0  0  0  0  0  0  0  0  0  0  0
    2.1570  -51.3211   26.2933 C   0  0  0  0  0  0  0  0  0  0  0  0
    1.1081  -51.9237   27.1802 N   0  3  1  0  0  0  0  0  0  0  0  0
    1.3822  -52.1154   28.6425 C   0  0  0  0  0  0  0  0  0  0  0  0
   -0.2149  -52.3346   26.6049 C   0  0  0  0  0  0  0  0  0  0  0  0
   -0.4889  -52.1429   25.1427 C   0  0  0  0  0  0  0  0  0  0  0  0
   -2.0881  -51.2579   13.2486 N   0  0  0  0  0  0  0  0  0  0  0  0
   -1.3584  -50.1985   14.0200 C   0  0  0  0  0  0  0  0  0  0  0  0
   -0.9027  -48.9474   13.3293 O   0  0  0  0  0  0  0  0  0  0  0  0
   -3.1843  -50.4912    7.3996 C   0  0  0  0  0  0  0  0  0  0  0  0
   -2.9103  -50.6828    8.8619 C   0  0  0  0  0  0  0  0  0  0  0  0
   -3.8173  -50.0622    9.8826 C   0  0  0  0  0  0  0  0  0  0  0  0
   -3.5433  -50.2539   11.3448 C   0  0  0  0  0  0  0  0  0  0  0  0
   -2.3622  -51.0662   11.7863 C   0  0  0  0  0  0  0  0  0  0  0  0
   -1.4551  -51.6869   10.7656 C   0  0  0  0  0  0  0  0  0  0  0  0
   -0.2739  -52.4993   11.2071 C   0  0  0  0  0  0  0  0  0  0  0  0
   -1.7292  -51.4952    9.3034 C   0  0  0  0  0  0  0  0  0  0  0  0
   -0.8220  -52.1159    8.2826 Cl  0  0  0  0  0  0  0  0  0  0  0  0
    1.0633  -50.8392   15.2610 H   0  0  0  0  0  0  0  0  0  0  0  0
    1.5259  -51.1627   17.7292 H   0  0  0  0  0  0  0  0  0  0  0  0
   -3.1465  -50.0011   16.1599 H   0  0  0  0  0  0  0  0  0  0  0  0
   -1.6494  -49.6910   20.7486 H   0  0  0  0  0  0  0  0  0  0  0  0
    0.0667  -49.0859   20.5709 H   0  0  0  0  0  0  0  0  0  0  0  0
   -1.2625  -49.9618   22.8129 H   0  0  0  0  0  0  0  0  0  0  0  0
    0.4304  -49.3404   22.5126 H   0  0  0  0  0  0  0  0  0  0  0  0
    1.1548  -50.8188   22.8628 H   0  0  0  0  0  0  0  0  0  0  0  0
    0.0786  -53.3056   22.1234 H   0  0  0  0  0  0  0  0  0  0  0  0
    1.6918  -52.4854   21.8638 H   0  0  0  0  0  0  0  0  0  0  0  0
   -0.3084  -53.0350   20.0590 H   0  0  0  0  0  0  0  0  0  0  0  0
    1.3278  -52.2310   19.9221 H   0  0  0  0  0  0  0  0  0  0  0  0
   -0.1180  -51.9510   23.5370 H   0  0  0  0  0  0  0  0  0  0  0  0
    1.9960  -50.0846   24.6299 H   0  0  0  0  0  0  0  0  0  0  0  0
    2.5736  -51.7983   24.3616 H   0  0  0  0  0  0  0  0  0  0  0  0
    2.3830  -50.3552   26.6944 H   0  0  0  0  0  0  0  0  0  0  0  0
    2.9376  -52.0528   26.3034 H   0  0  0  0  0  0  0  0  0  0  0  0
    0.3762  -52.4168   26.6688 H   0  0  0  0  0  0  0  0  0  0  0  0
    2.1958  -51.4866   28.9383 H   0  0  0  0  0  0  0  0  0  0  0  0
    1.6368  -53.1382   28.8266 H   0  0  0  0  0  0  0  0  0  0  0  0
    0.5095  -51.8581   29.2057 H   0  0  0  0  0  0  0  0  0  0  0  0
   -0.9657  -51.7861   27.1344 H   0  0  0  0  0  0  0  0  0  0  0  0
   -0.2121  -53.3987   26.7172 H   0  0  0  0  0  0  0  0  0  0  0  0
   -1.3526  -51.5155   25.0700 H   0  0  0  0  0  0  0  0  0  0  0  0
   -0.5759  -53.1441   24.7755 H   0  0  0  0  0  0  0  0  0  0  0  0
   -2.3871  -52.0790   13.7020 H   0  0  0  0  0  0  0  0  0  0  0  0
   -4.0603  -49.8891    7.2768 H   0  0  0  0  0  0  0  0  0  0  0  0
   -3.3387  -51.4440    6.9378 H   0  0  0  0  0  0  0  0  0  0  0  0
   -2.3493  -50.0038    6.9411 H   0  0  0  0  0  0  0  0  0  0  0  0
   -4.6299  -49.5033    9.5789 H   0  0  0  0  0  0  0  0  0  0  0  0
   -4.1674  -49.8269   12.0471 H   0  0  0  0  0  0  0  0  0  0  0  0
   -0.2388  -52.5259   12.2762 H   0  0  0  0  0  0  0  0  0  0  0  0
    0.6245  -52.0556   10.8317 H   0  0  0  0  0  0  0  0  0  0  0  0
   -0.3648  -53.4959   10.8283 H   0  0  0  0  0  0  0  0  0  0  0  0
  1  2  2  0  0  0  0
  2  3  1  0  0  0  0
  2 32  1  0  0  0  0
  3  4  2  0  0  0  0
  3 33  1  0  0  0  0
  4  7  1  0  0  0  0
  4  5  1  0  0  0  0
  5  6  2  0  0  0  0
  6  1  1  0  0  0  0
  6 34  1  0  0  0  0
  7  8  1  0  0  0  0
  8  9  1  0  0  0  0
  8 35  1  0  0  0  0
  8 36  1  0  0  0  0
  9 10  1  0  0  0  0
  9 37  1  0  0  0  0
  9 38  1  0  0  0  0
 10 13  1  0  0  0  0
 10 11  1  0  0  0  0
 10 39  1  0  0  0  0
 11 12  1  0  0  0  0
 11 40  1  0  0  0  0
 11 41  1  0  0  0  0
 12  7  1  0  0  0  0
 12 42  1  0  0  0  0
 12 43  1  0  0  0  0
 13 14  1  0  0  0  0
 13 44  1  6  0  0  0
 14 15  1  0  0  0  0
 14 45  1  0  0  0  0
 14 46  1  0  0  0  0
 15 16  1  0  0  0  0
 15 47  1  0  0  0  0
 15 48  1  0  0  0  0
 16 17  1  0  0  0  0
 16 18  1  0  0  0  0
 16 49  1  6  0  0  0
 17 50  1  0  0  0  0
 17 51  1  0  0  0  0
 17 52  1  0  0  0  0
 18 19  1  0  0  0  0
 18 53  1  0  0  0  0
 18 54  1  0  0  0  0
 19 13  1  0  0  0  0
 19 55  1  0  0  0  0
 19 56  1  0  0  0  0
 20 21  1  0  0  0  0
 20 57  1  0  0  0  0
 21 22  2  0  0  0  0
 21  1  1  0  0  0  0
 23 24  1  0  0  0  0
 23 58  1  0  0  0  0
 23 59  1  0  0  0  0
 23 60  1  0  0  0  0
 24 25  2  0  0  0  0
 25 26  1  0  0  0  0
 25 61  1  0  0  0  0
 26 27  2  0  0  0  0
 26 62  1  0  0  0  0
 27 20  1  0  0  0  0
 27 28  1  0  0  0  0
 28 29  1  0  0  0  0
 28 30  2  0  0  0  0
 29 63  1  0  0  0  0
 29 64  1  0  0  0  0
 29 65  1  0  0  0  0
 30 31  1  0  0  0  0
 30 24  1  0  0  0  0
M  CHG  2  10   1  16   1
M  END
>  <minimizedAffinity>
-7.95541

$$$$

 OpenBabel09092411003D

 58 61  0  0  0  0  0  0  0  0999 V2000
    0.5999  -52.4290   23.0757 C   0  0  0  0  0  0  0  0  0  0  0  0
    1.0852  -53.6383   23.8188 C   0  0  0  0  0  0  0  0  0  0  0  0
    0.7686  -53.8003   25.2760 N   0  0  0  0  0  0  0  0  0  0  0  0
   -0.0334  -52.7531   25.9902 C   0  0  0  0  0  0  0  0  0  0  0  0
   -0.5188  -51.5439   25.2471 C   0  0  0  0  0  0  0  0  0  0  0  0
   -0.2022  -51.3818   23.7899 N   0  0  0  0  0  0  0  0  0  0  0  0
    1.5498  -51.9430   18.7041 N   0  3  0  0  0  0  0  0  0  0  0  0
    0.9037  -50.8203   19.4605 C   0  0  0  0  0  0  0  0  0  0  0  0
    0.5871  -50.9824   20.9177 C   0  0  0  0  0  0  0  0  0  0  0  0
    0.9165  -52.2670   21.6185 N   0  0  0  0  0  0  0  0  0  0  0  0
    1.5626  -53.3896   20.8621 C   0  0  0  0  0  0  0  0  0  0  0  0
    1.8793  -53.2276   19.4049 C   0  0  0  0  0  0  0  0  0  0  0  0
    2.8164  -51.2949   12.8752 C   0  0  0  0  0  0  0  0  0  0  0  0
    2.4998  -51.4569   14.3324 N   0  3  2  0  0  0  0  0  0  0  0  0
    3.5415  -51.9884   15.2717 C   0  0  0  0  0  0  0  0  0  0  0  0
    3.2248  -52.1504   16.7289 C   0  0  0  0  0  0  0  0  0  0  0  0
    1.8665  -51.7809   17.2469 C   0  0  1  0  0  0  0  0  0  0  0  0
    0.8248  -51.2494   16.3076 C   0  0  0  0  0  0  0  0  0  0  0  0
    1.1414  -51.0874   14.8504 C   0  0  0  0  0  0  0  0  0  0  0  0
   -1.3209  -50.4966   25.9613 N   0  0  0  0  0  0  0  0  0  0  0  0
   -2.8102  -50.4461   25.7900 C   0  0  0  0  0  0  0  0  0  0  0  0
   -3.4975  -51.4430   24.9045 O   0  0  0  0  0  0  0  0  0  0  0  0
   -3.6123  -49.3989   26.5041 C   0  0  0  0  0  0  0  0  0  0  0  0
   -3.7323  -49.4359   27.9988 C   0  0  0  0  0  0  0  0  0  0  0  0
   -4.5345  -48.3886   28.7129 C   0  0  0  0  0  0  0  0  0  0  0  0
   -5.2164  -47.3044   27.9323 C   0  0  0  0  0  0  0  0  0  0  0  0
   -6.0185  -46.2572   28.6464 Cl  0  0  0  0  0  0  0  0  0  0  0  0
   -5.0963  -47.2675   26.4376 C   0  0  0  0  0  0  0  0  0  0  0  0
   -5.7783  -46.1833   25.6570 Cl  0  0  0  0  0  0  0  0  0  0  0  0
   -4.2943  -48.3147   25.7235 C   0  0  0  0  0  0  0  0  0  0  0  0
    1.6369  -54.3588   23.3274 H   0  0  0  0  0  0  0  0  0  0  0  0
   -0.2512  -52.8645   26.9928 H   0  0  0  0  0  0  0  0  0  0  0  0
    0.9541  -52.7683   18.6371 H   0  0  0  0  0  0  0  0  0  0  0  0
   -0.0204  -50.6060   18.9656 H   0  0  0  0  0  0  0  0  0  0  0  0
    1.6532  -50.0566   19.4551 H   0  0  0  0  0  0  0  0  0  0  0  0
   -0.4674  -50.8348   21.0229 H   0  0  0  0  0  0  0  0  0  0  0  0
    1.2329  -50.2720   21.3901 H   0  0  0  0  0  0  0  0  0  0  0  0
    0.9098  -54.2334   20.9444 H   0  0  0  0  0  0  0  0  0  0  0  0
    2.5282  -53.4685   21.3163 H   0  0  0  0  0  0  0  0  0  0  0  0
    1.3570  -54.0047   18.8870 H   0  0  0  0  0  0  0  0  0  0  0  0
    2.9487  -53.2533   19.3813 H   0  0  0  0  0  0  0  0  0  0  0  0
    3.8236  -51.6062   12.6923 H   0  0  0  0  0  0  0  0  0  0  0  0
    2.7047  -50.2675   12.5980 H   0  0  0  0  0  0  0  0  0  0  0  0
    2.1467  -51.8954   12.2958 H   0  0  0  0  0  0  0  0  0  0  0  0
    2.9869  -51.2810   13.4536 H   0  0  0  0  0  0  0  0  0  0  0  0
    4.3800  -51.3266   15.2095 H   0  0  0  0  0  0  0  0  0  0  0  0
    3.6835  -52.9949   14.9375 H   0  0  0  0  0  0  0  0  0  0  0  0
    3.9329  -51.5553   17.2669 H   0  0  0  0  0  0  0  0  0  0  0  0
    3.2628  -53.2100   16.8725 H   0  0  0  0  0  0  0  0  0  0  0  0
    2.2604  -51.1872   18.0452 H   0  0  0  0  0  0  0  0  0  0  0  0
    0.5444  -50.2832   16.6720 H   0  0  0  0  0  0  0  0  0  0  0  0
    0.0759  -52.0136   16.3131 H   0  0  0  0  0  0  0  0  0  0  0  0
    0.9914  -50.0545   14.6147 H   0  0  0  0  0  0  0  0  0  0  0  0
    0.4963  -51.7985   14.3780 H   0  0  0  0  0  0  0  0  0  0  0  0
   -0.8698  -49.8424   26.5425 H   0  0  0  0  0  0  0  0  0  0  0  0
   -3.2630  -50.1818   28.5359 H   0  0  0  0  0  0  0  0  0  0  0  0
   -4.6172  -48.4141   29.7413 H   0  0  0  0  0  0  0  0  0  0  0  0
   -4.2117  -48.2893   24.6951 H   0  0  0  0  0  0  0  0  0  0  0  0
  1  2  2  0  0  0  0
  2  3  1  0  0  0  0
  2 31  1  0  0  0  0
  3  4  2  0  0  0  0
  4  5  1  0  0  0  0
  4 32  1  0  0  0  0
  5 20  1  0  0  0  0
  5  6  2  0  0  0  0
  6  1  1  0  0  0  0
  7  8  1  0  0  0  0
  7 33  1  0  0  0  0
  8  9  1  0  0  0  0
  8 34  1  0  0  0  0
  8 35  1  0  0  0  0
  9 10  1  0  0  0  0
  9 36  1  0  0  0  0
  9 37  1  0  0  0  0
 10  1  1  0  0  0  0
 10 11  1  0  0  0  0
 11 12  1  0  0  0  0
 11 38  1  0  0  0  0
 11 39  1  0  0  0  0
 12  7  1  0  0  0  0
 12 40  1  0  0  0  0
 12 41  1  0  0  0  0
 13 14  1  0  0  0  0
 13 42  1  0  0  0  0
 13 43  1  0  0  0  0
 13 44  1  0  0  0  0
 14 15  1  0  0  0  0
 14 45  1  1  0  0  0
 15 16  1  0  0  0  0
 15 46  1  0  0  0  0
 15 47  1  0  0  0  0
 16 17  1  0  0  0  0
 16 48  1  0  0  0  0
 16 49  1  0  0  0  0
 17  7  1  0  0  0  0
 17 18  1  0  0  0  0
 17 50  1  1  0  0  0
 18 19  1  0  0  0  0
 18 51  1  0  0  0  0
 18 52  1  0  0  0  0
 19 14  1  0  0  0  0
 19 53  1  0  0  0  0
 19 54  1  0  0  0  0
 20 21  1  0  0  0  0
 20 55  1  0  0  0  0
 21 22  2  0  0  0  0
 21 23  1  0  0  0  0
 23 24  2  0  0  0  0
 24 25  1  0  0  0  0
 24 56  1  0  0  0  0
 25 26  2  0  0  0  0
 25 57  1  0  0  0  0
 26 27  1  0  0  0  0
 26 28  1  0  0  0  0
 28 29  1  0  0  0  0
 28 30  2  0  0  0  0
 30 23  1  0  0  0  0
 30 58  1  0  0  0  0
M  CHG  2   7   1  14   1
M  END
>  <minimizedAffinity>
-8.34375

$$$$

 OpenBabel09092411003D

 62 65  0  0  0  0  0  0  0  0999 V2000
    1.1728  -52.4934   21.2629 C   0  0  0  0  0  0  0  0  0  0  0  0
    2.0007  -53.4858   20.5016 C   0  0  0  0  0  0  0  0  0  0  0  0
    2.2952  -53.2588   19.0484 N   0  0  0  0  0  0  0  0  0  0  0  0
    1.7618  -52.0395   18.3566 C   0  0  0  0  0  0  0  0  0  0  0  0
    0.9338  -51.0471   19.1180 C   0  0  0  0  0  0  0  0  0  0  0  0
    0.4004  -49.8277   18.4261 Cl  0  0  0  0  0  0  0  0  0  0  0  0
    0.6393  -51.2740   20.5712 C   0  0  0  0  0  0  0  0  0  0  0  0
    2.0562  -51.8125   16.9034 N   0  0  0  0  0  0  0  0  0  0  0  0
    0.9756  -51.3196   15.9873 C   0  0  0  0  0  0  0  0  0  0  0  0
    1.2700  -51.0926   14.5341 C   0  0  0  0  0  0  0  0  0  0  0  0
    2.6451  -51.3585   13.9970 N   0  3  0  0  0  0  0  0  0  0  0  0
    3.7257  -51.8514   14.9132 C   0  0  0  0  0  0  0  0  0  0  0  0
    3.4313  -52.0784   16.3663 C   0  0  0  0  0  0  0  0  0  0  0  0
    2.9396  -51.1315   12.5438 C   0  0  1  0  0  0  0  0  0  0  0  0
    2.6344  -52.2038   11.5403 C   0  0  0  0  0  0  0  0  0  0  0  0
    2.9288  -51.9769   10.0872 C   0  0  0  0  0  0  0  0  0  0  0  0
    3.5285  -50.6776    9.6374 N   0  3  1  0  0  0  0  0  0  0  0  0
    3.8230  -50.4506    8.1842 C   0  0  0  0  0  0  0  0  0  0  0  0
    3.8337  -49.6052   10.6409 C   0  0  0  0  0  0  0  0  0  0  0  0
    3.5392  -49.8322   12.0941 C   0  0  0  0  0  0  0  0  0  0  0  0
    0.2885  -51.6167   23.5432 N   0  0  0  0  0  0  0  0  0  0  0  0
    0.8783  -52.7204   22.7162 C   0  0  0  0  0  0  0  0  0  0  0  0
    1.1736  -54.0511   23.3423 O   0  0  0  0  0  0  0  0  0  0  0  0
    2.4266  -51.1565   25.5968 C   0  0  0  0  0  0  0  0  0  0  0  0
    1.0630  -51.6136   26.0232 C   0  0  0  0  0  0  0  0  0  0  0  0
    0.7685  -51.8406   27.4763 C   0  0  0  0  0  0  0  0  0  0  0  0
    1.8376  -51.6105   28.5031 Cl  0  0  0  0  0  0  0  0  0  0  0  0
   -0.5950  -52.2977   27.9027 C   0  0  0  0  0  0  0  0  0  0  0  0
   -1.6640  -52.5278   26.8760 C   0  0  0  0  0  0  0  0  0  0  0  0
   -1.3695  -52.3008   25.4229 C   0  0  0  0  0  0  0  0  0  0  0  0
   -0.0060  -51.8437   24.9965 C   0  0  0  0  0  0  0  0  0  0  0  0
    2.3677  -54.3247   20.9776 H   0  0  0  0  0  0  0  0  0  0  0  0
    0.0697  -50.5912   21.0951 H   0  0  0  0  0  0  0  0  0  0  0  0
    0.6372  -50.3851   16.3835 H   0  0  0  0  0  0  0  0  0  0  0  0
    0.2768  -52.1298   15.9730 H   0  0  0  0  0  0  0  0  0  0  0  0
    1.0528  -50.0646   14.3319 H   0  0  0  0  0  0  0  0  0  0  0  0
    0.6677  -51.8283   14.0433 H   0  0  0  0  0  0  0  0  0  0  0  0
    2.5971  -51.3629   12.9781 H   0  0  0  0  0  0  0  0  0  0  0  0
    4.5199  -51.1359   14.8671 H   0  0  0  0  0  0  0  0  0  0  0  0
    3.9287  -52.8360   14.5467 H   0  0  0  0  0  0  0  0  0  0  0  0
    4.1043  -51.4564   16.9186 H   0  0  0  0  0  0  0  0  0  0  0  0
    3.5378  -53.1374   16.4763 H   0  0  0  0  0  0  0  0  0  0  0  0
    3.9447  -51.3508   12.8381 H   0  0  0  0  0  0  0  0  0  0  0  0
    1.5866  -52.4076   11.6150 H   0  0  0  0  0  0  0  0  0  0  0  0
    3.3088  -52.9902   11.8080 H   0  0  0  0  0  0  0  0  0  0  0  0
    2.0023  -52.0872    9.5634 H   0  0  0  0  0  0  0  0  0  0  0  0
    3.6997  -52.6889    9.8783 H   0  0  0  0  0  0  0  0  0  0  0  0
    3.5107  -51.5393    9.0919 H   0  0  0  0  0  0  0  0  0  0  0  0
    3.9952  -49.4084    8.0137 H   0  0  0  0  0  0  0  0  0  0  0  0
    2.9899  -50.7752    7.5965 H   0  0  0  0  0  0  0  0  0  0  0  0
    4.6940  -51.0062    7.9058 H   0  0  0  0  0  0  0  0  0  0  0  0
    3.2799  -48.7388   10.3452 H   0  0  0  0  0  0  0  0  0  0  0  0
    4.9013  -49.5395   10.6136 H   0  0  0  0  0  0  0  0  0  0  0  0
    2.8641  -49.0593   12.3968 H   0  0  0  0  0  0  0  0  0  0  0  0
    4.5103  -49.8409   12.5434 H   0  0  0  0  0  0  0  0  0  0  0  0
    0.0947  -50.7433   23.1322 H   0  0  0  0  0  0  0  0  0  0  0  0
    3.0515  -51.0466   26.4584 H   0  0  0  0  0  0  0  0  0  0  0  0
    2.3461  -50.2163   25.0924 H   0  0  0  0  0  0  0  0  0  0  0  0
    2.8549  -51.8805   24.9355 H   0  0  0  0  0  0  0  0  0  0  0  0
   -0.7976  -52.4539   28.9025 H   0  0  0  0  0  0  0  0  0  0  0  0
   -2.6021  -52.8423   27.1694 H   0  0  0  0  0  0  0  0  0  0  0  0
   -2.1050  -52.4591   24.7165 H   0  0  0  0  0  0  0  0  0  0  0  0
  1  2  2  0  0  0  0
  2  3  1  0  0  0  0
  2 32  1  0  0  0  0
  3  4  2  0  0  0  0
  4  8  1  0  0  0  0
  4  5  1  0  0  0  0
  5  6  1  0  0  0  0
  5  7  2  0  0  0  0
  7  1  1  0  0  0  0
  7 33  1  0  0  0  0
  8  9  1  0  0  0  0
  9 10  1  0  0  0  0
  9 34  1  0  0  0  0
  9 35  1  0  0  0  0
 10 11  1  0  0  0  0
 10 36  1  0  0  0  0
 10 37  1  0  0  0  0
 11 14  1  0  0  0  0
 11 12  1  0  0  0  0
 11 38  1  0  0  0  0
 12 13  1  0  0  0  0
 12 39  1  0  0  0  0
 12 40  1  0  0  0  0
 13  8  1  0  0  0  0
 13 41  1  0  0  0  0
 13 42  1  0  0  0  0
 14 15  1  0  0  0  0
 14 43  1  1  0  0  0
 15 16  1  0  0  0  0
 15 44  1  0  0  0  0
 15 45  1  0  0  0  0
 16 17  1  0  0  0  0
 16 46  1  0  0  0  0
 16 47  1  0  0  0  0
 17 18  1  0  0  0  0
 17 19  1  0  0  0  0
 17 48  1  1  0  0  0
 18 49  1  0  0  0  0
 18 50  1  0  0  0  0
 18 51  1  0  0  0  0
 19 20  1  0  0  0  0
 19 52  1  0  0  0  0
 19 53  1  0  0  0  0
 20 14  1  0  0  0  0
 20 54  1  0  0  0  0
 20 55  1  0  0  0  0
 21 22  1  0  0  0  0
 21 56  1  0  0  0  0
 22 23  2  0  0  0  0
 22  1  1  0  0  0  0
 24 25  1  0  0  0  0
 24 57  1  0  0  0  0
 24 58  1  0  0  0  0
 24 59  1  0  0  0  0
 25 26  2  0  0  0  0
 26 27  1  0  0  0  0
 26 28  1  0  0  0  0
 28 29  2  0  0  0  0
 28 60  1  0  0  0  0
 29 30  1  0  0  0  0
 29 61  1  0  0  0  0
 30 31  2  0  0  0  0
 30 62  1  0  0  0  0
 31 21  1  0  0  0  0
 31 25  1  0  0  0  0
M  CHG  2  11   1  17   1
M  END
>  <minimizedAffinity>
-8.32735

$$$$

 OpenBabel09092411003D

 55 57  0  0  0  0  0  0  0  0999 V2000
    0.7287  -51.6809   18.8637 C   0  0  0  0  0  0  0  0  0  0  0  0
    1.0512  -50.7101   19.9608 C   0  0  0  0  0  0  0  0  0  0  0  0
    1.1668  -51.1902   21.3771 C   0  0  0  0  0  0  0  0  0  0  0  0
    0.9600  -52.6411   21.6965 C   0  0  0  0  0  0  0  0  0  0  0  0
    0.6376  -53.6120   20.5994 C   0  0  0  0  0  0  0  0  0  0  0  0
    0.5219  -53.1318   19.1830 C   0  0  0  0  0  0  0  0  0  0  0  0
    1.0757  -53.1213   23.1129 N   0  0  0  0  0  0  0  0  0  0  0  0
    0.2157  -52.5161   24.1825 C   0  0  1  0  0  0  0  0  0  0  0  0
   -1.2020  -52.1326   23.8774 C   0  0  0  0  0  0  0  0  0  0  0  0
    0.7733  -52.2945   25.5573 C   0  0  0  0  0  0  0  0  0  0  0  0
    2.1021  -51.6200   25.7278 C   0  0  0  0  0  0  0  0  0  0  0  0
    2.6597  -51.3984   27.1026 C   0  0  0  0  0  0  0  0  0  0  0  0
    1.8885  -51.8513   28.3068 C   0  0  0  0  0  0  0  0  0  0  0  0
    0.5597  -52.5258   28.1362 C   0  0  0  0  0  0  0  0  0  0  0  0
    0.0021  -52.7474   26.7614 C   0  0  0  0  0  0  0  0  0  0  0  0
    0.6131  -51.2008   17.4474 C   0  0  0  0  0  0  0  0  0  0  0  0
    3.9656  -51.9434   14.5389 N   0  3  2  0  0  0  0  0  0  0  0  0
    4.0930  -52.3987   15.9625 C   0  0  0  0  0  0  0  0  0  0  0  0
    2.9755  -52.1512   16.9319 C   0  0  0  0  0  0  0  0  0  0  0  0
    1.7306  -51.4483   16.4779 N   0  3  1  0  0  0  0  0  0  0  0  0
    1.6032  -50.9930   15.0544 C   0  0  0  0  0  0  0  0  0  0  0  0
    2.7207  -51.2406   14.0849 C   0  0  0  0  0  0  0  0  0  0  0  0
    5.6429  -53.5731   13.4072 C   0  0  0  0  0  0  0  0  0  0  0  0
    5.0831  -52.1910   13.5695 C   0  0  0  0  0  0  0  0  0  0  0  0
    1.1935  -49.7119   19.7411 H   0  0  0  0  0  0  0  0  0  0  0  0
    1.3886  -50.5222   22.1319 H   0  0  0  0  0  0  0  0  0  0  0  0
    0.4954  -54.6103   20.8191 H   0  0  0  0  0  0  0  0  0  0  0  0
    0.3000  -53.7997   18.4282 H   0  0  0  0  0  0  0  0  0  0  0  0
    1.7160  -53.8336   23.3405 H   0  0  0  0  0  0  0  0  0  0  0  0
    0.8037  -51.6931   23.8336 H   0  0  0  0  0  0  0  0  0  0  0  0
   -1.8597  -52.9126   24.1997 H   0  0  0  0  0  0  0  0  0  0  0  0
   -1.3127  -51.9854   22.8234 H   0  0  0  0  0  0  0  0  0  0  0  0
   -1.4448  -51.2262   24.3915 H   0  0  0  0  0  0  0  0  0  0  0  0
    2.6327  -51.3084   24.8993 H   0  0  0  0  0  0  0  0  0  0  0  0
    3.5740  -50.9343   27.2200 H   0  0  0  0  0  0  0  0  0  0  0  0
    2.2722  -51.6988   29.2526 H   0  0  0  0  0  0  0  0  0  0  0  0
    0.0291  -52.8374   28.9647 H   0  0  0  0  0  0  0  0  0  0  0  0
   -0.9122  -53.2115   26.6440 H   0  0  0  0  0  0  0  0  0  0  0  0
   -0.2607  -51.6611   17.0356 H   0  0  0  0  0  0  0  0  0  0  0  0
    0.6067  -50.1356   17.5486 H   0  0  0  0  0  0  0  0  0  0  0  0
    4.1129  -51.3898   13.6949 H   0  0  0  0  0  0  0  0  0  0  0  0
    4.9616  -51.9195   16.3635 H   0  0  0  0  0  0  0  0  0  0  0  0
    4.1142  -53.4652   15.8787 H   0  0  0  0  0  0  0  0  0  0  0  0
    3.3839  -51.5701   17.7322 H   0  0  0  0  0  0  0  0  0  0  0  0
    2.6301  -53.1365   17.1658 H   0  0  0  0  0  0  0  0  0  0  0  0
    1.6712  -50.4848   16.8074 H   0  0  0  0  0  0  0  0  0  0  0  0
    1.4464  -49.9349   15.0814 H   0  0  0  0  0  0  0  0  0  0  0  0
    0.8078  -51.5985   14.6728 H   0  0  0  0  0  0  0  0  0  0  0  0
    3.0241  -50.2845   13.7126 H   0  0  0  0  0  0  0  0  0  0  0  0
    2.2918  -51.9274   13.3854 H   0  0  0  0  0  0  0  0  0  0  0  0
    6.4265  -53.5573   12.6788 H   0  0  0  0  0  0  0  0  0  0  0  0
    4.8680  -54.2360   13.0831 H   0  0  0  0  0  0  0  0  0  0  0  0
    6.0335  -53.9120   14.3439 H   0  0  0  0  0  0  0  0  0  0  0  0
    4.7301  -51.8857   12.6067 H   0  0  0  0  0  0  0  0  0  0  0  0
    5.8998  -51.6428   13.9905 H   0  0  0  0  0  0  0  0  0  0  0  0
  1  2  2  0  0  0  0
  2  3  1  0  0  0  0
  2 25  1  0  0  0  0
  3  4  2  0  0  0  0
  3 26  1  0  0  0  0
  4  7  1  0  0  0  0
  4  5  1  0  0  0  0
  5  6  2  0  0  0  0
  5 27  1  0  0  0  0
  6  1  1  0  0  0  0
  6 28  1  0  0  0  0
  7  8  1  0  0  0  0
  7 29  1  0  0  0  0
  8  9  1  0  0  0  0
  8 10  1  0  0  0  0
  8 30  1  6  0  0  0
  9 31  1  0  0  0  0
  9 32  1  0  0  0  0
  9 33  1  0  0  0  0
 10 11  2  0  0  0  0
 11 12  1  0  0  0  0
 11 34  1  0  0  0  0
 12 13  2  0  0  0  0
 12 35  1  0  0  0  0
 13 14  1  0  0  0  0
 13 36  1  0  0  0  0
 14 15  2  0  0  0  0
 14 37  1  0  0  0  0
 15 10  1  0  0  0  0
 15 38  1  0  0  0  0
 16  1  1  0  0  0  0
 16 39  1  0  0  0  0
 16 40  1  0  0  0  0
 17 18  1  0  0  0  0
 17 41  1  1  0  0  0
 18 19  1  0  0  0  0
 18 42  1  0  0  0  0
 18 43  1  0  0  0  0
 19 20  1  0  0  0  0
 19 44  1  0  0  0  0
 19 45  1  0  0  0  0
 20 16  1  0  0  0  0
 20 21  1  0  0  0  0
 20 46  1  1  0  0  0
 21 22  1  0  0  0  0
 21 47  1  0  0  0  0
 21 48  1  0  0  0  0
 22 17  1  0  0  0  0
 22 49  1  0  0  0  0
 22 50  1  0  0  0  0
 23 24  1  0  0  0  0
 23 51  1  0  0  0  0
 23 52  1  0  0  0  0
 23 53  1  0  0  0  0
 24 17  1  0  0  0  0
 24 54  1  0  0  0  0
 24 55  1  0  0  0  0
M  CHG  2  17   1  20   1
M  END
>  <minimizedAffinity>
-8.79460

$$$$

 OpenBabel09092411003D

 55 57  0  0  0  0  0  0  0  0999 V2000
    0.7287  -51.6809   18.8637 C   0  0  0  0  0  0  0  0  0  0  0  0
    1.0512  -50.7101   19.9608 C   0  0  0  0  0  0  0  0  0  0  0  0
    1.1668  -51.1902   21.3771 C   0  0  0  0  0  0  0  0  0  0  0  0
    0.9600  -52.6411   21.6965 C   0  0  0  0  0  0  0  0  0  0  0  0
    0.6376  -53.6120   20.5994 C   0  0  0  0  0  0  0  0  0  0  0  0
    0.5219  -53.1318   19.1830 C   0  0  0  0  0  0  0  0  0  0  0  0
    1.0757  -53.1213   23.1129 N   0  0  0  0  0  0  0  0  0  0  0  0
    0.2157  -52.5161   24.1825 C   0  0  1  0  0  0  0  0  0  0  0  0
   -1.2020  -52.1326   23.8774 C   0  0  0  0  0  0  0  0  0  0  0  0
    0.7733  -52.2945   25.5573 C   0  0  0  0  0  0  0  0  0  0  0  0
    2.1021  -51.6200   25.7278 C   0  0  0  0  0  0  0  0  0  0  0  0
    2.6597  -51.3984   27.1026 C   0  0  0  0  0  0  0  0  0  0  0  0
    1.8885  -51.8513   28.3068 C   0  0  0  0  0  0  0  0  0  0  0  0
    0.5597  -52.5258   28.1362 C   0  0  0  0  0  0  0  0  0  0  0  0
    0.0021  -52.7474   26.7614 C   0  0  0  0  0  0  0  0  0  0  0  0
    0.6131  -51.2008   17.4474 C   0  0  0  0  0  0  0  0  0  0  0  0
    3.9656  -51.9434   14.5389 N   0  3  2  0  0  0  0  0  0  0  0  0
    4.0930  -52.3987   15.9625 C   0  0  0  0  0  0  0  0  0  0  0  0
    2.9755  -52.1512   16.9319 C   0  0  0  0  0  0  0  0  0  0  0  0
    1.7306  -51.4483   16.4779 N   0  3  1  0  0  0  0  0  0  0  0  0
    1.6032  -50.9930   15.0544 C   0  0  0  0  0  0  0  0  0  0  0  0
    2.7207  -51.2406   14.0849 C   0  0  0  0  0  0  0  0  0  0  0  0
    5.6429  -53.5731   13.4072 C   0  0  0  0  0  0  0  0  0  0  0  0
    5.0831  -52.1910   13.5695 C   0  0  0  0  0  0  0  0  0  0  0  0
    1.1935  -49.7119   19.7411 H   0  0  0  0  0  0  0  0  0  0  0  0
    1.3886  -50.5222   22.1319 H   0  0  0  0  0  0  0  0  0  0  0  0
    0.4954  -54.6103   20.8191 H   0  0  0  0  0  0  0  0  0  0  0  0
    0.3000  -53.7997   18.4282 H   0  0  0  0  0  0  0  0  0  0  0  0
    1.7160  -53.8336   23.3405 H   0  0  0  0  0  0  0  0  0  0  0  0
    0.8037  -51.6931   23.8336 H   0  0  0  0  0  0  0  0  0  0  0  0
   -1.8597  -52.9126   24.1997 H   0  0  0  0  0  0  0  0  0  0  0  0
   -1.3127  -51.9854   22.8234 H   0  0  0  0  0  0  0  0  0  0  0  0
   -1.4448  -51.2262   24.3915 H   0  0  0  0  0  0  0  0  0  0  0  0
    2.6327  -51.3084   24.8993 H   0  0  0  0  0  0  0  0  0  0  0  0
    3.5740  -50.9343   27.2200 H   0  0  0  0  0  0  0  0  0  0  0  0
    2.2722  -51.6988   29.2526 H   0  0  0  0  0  0  0  0  0  0  0  0
    0.0291  -52.8374   28.9647 H   0  0  0  0  0  0  0  0  0  0  0  0
   -0.9122  -53.2115   26.6440 H   0  0  0  0  0  0  0  0  0  0  0  0
   -0.2607  -51.6611   17.0356 H   0  0  0  0  0  0  0  0  0  0  0  0
    0.6067  -50.1356   17.5486 H   0  0  0  0  0  0  0  0  0  0  0  0
    4.1129  -51.3898   13.6949 H   0  0  0  0  0  0  0  0  0  0  0  0
    4.9616  -51.9195   16.3635 H   0  0  0  0  0  0  0  0  0  0  0  0
    4.1142  -53.4652   15.8787 H   0  0  0  0  0  0  0  0  0  0  0  0
    3.3839  -51.5701   17.7322 H   0  0  0  0  0  0  0  0  0  0  0  0
    2.6301  -53.1365   17.1658 H   0  0  0  0  0  0  0  0  0  0  0  0
    1.6712  -50.4848   16.8074 H   0  0  0  0  0  0  0  0  0  0  0  0
    1.4464  -49.9349   15.0814 H   0  0  0  0  0  0  0  0  0  0  0  0
    0.8078  -51.5985   14.6728 H   0  0  0  0  0  0  0  0  0  0  0  0
    3.0241  -50.2845   13.7126 H   0  0  0  0  0  0  0  0  0  0  0  0
    2.2918  -51.9274   13.3854 H   0  0  0  0  0  0  0  0  0  0  0  0
    6.4265  -53.5573   12.6788 H   0  0  0  0  0  0  0  0  0  0  0  0
    4.8680  -54.2360   13.0831 H   0  0  0  0  0  0  0  0  0  0  0  0
    6.0335  -53.9120   14.3439 H   0  0  0  0  0  0  0  0  0  0  0  0
    4.7301  -51.8857   12.6067 H   0  0  0  0  0  0  0  0  0  0  0  0
    5.8998  -51.6428   13.9905 H   0  0  0  0  0  0  0  0  0  0  0  0
  1  2  2  0  0  0  0
  2  3  1  0  0  0  0
  2 25  1  0  0  0  0
  3  4  2  0  0  0  0
  3 26  1  0  0  0  0
  4  7  1  0  0  0  0
  4  5  1  0  0  0  0
  5  6  2  0  0  0  0
  5 27  1  0  0  0  0
  6  1  1  0  0  0  0
  6 28  1  0  0  0  0
  7  8  1  0  0  0  0
  7 29  1  0  0  0  0
  8  9  1  0  0  0  0
  8 10  1  0  0  0  0
  8 30  1  6  0  0  0
  9 31  1  0  0  0  0
  9 32  1  0  0  0  0
  9 33  1  0  0  0  0
 10 11  2  0  0  0  0
 11 12  1  0  0  0  0
 11 34  1  0  0  0  0
 12 13  2  0  0  0  0
 12 35  1  0  0  0  0
 13 14  1  0  0  0  0
 13 36  1  0  0  0  0
 14 15  2  0  0  0  0
 14 37  1  0  0  0  0
 15 10  1  0  0  0  0
 15 38  1  0  0  0  0
 16  1  1  0  0  0  0
 16 39  1  0  0  0  0
 16 40  1  0  0  0  0
 17 18  1  0  0  0  0
 17 41  1  1  0  0  0
 18 19  1  0  0  0  0
 18 42  1  0  0  0  0
 18 43  1  0  0  0  0
 19 20  1  0  0  0  0
 19 44  1  0  0  0  0
 19 45  1  0  0  0  0
 20 16  1  0  0  0  0
 20 21  1  0  0  0  0
 20 46  1  1  0  0  0
 21 22  1  0  0  0  0
 21 47  1  0  0  0  0
 21 48  1  0  0  0  0
 22 17  1  0  0  0  0
 22 49  1  0  0  0  0
 22 50  1  0  0  0  0
 23 24  1  0  0  0  0
 23 51  1  0  0  0  0
 23 52  1  0  0  0  0
 23 53  1  0  0  0  0
 24 17  1  0  0  0  0
 24 54  1  0  0  0  0
 24 55  1  0  0  0  0
M  CHG  2  17   1  20   1
M  END
>  <minimizedAffinity>
-8.79460

$$$$

 OpenBabel09092411003D

 59 62  0  0  0  0  0  0  0  0999 V2000
   -3.2734  -49.9672   23.0362 C   0  0  0  0  0  0  0  0  0  0  0  0
   -4.5472  -50.6647   23.4117 C   0  0  0  0  0  0  0  0  0  0  0  0
   -4.6148  -51.4755   24.6719 C   0  0  0  0  0  0  0  0  0  0  0  0
   -3.4087  -51.5888   25.5565 C   0  0  0  0  0  0  0  0  0  0  0  0
   -3.4764  -52.3997   26.8166 N   0  0  0  0  0  0  0  0  0  0  0  0
   -2.2703  -52.5130   27.7012 C   0  0  0  0  0  0  0  0  0  0  0  0
   -0.9965  -51.8154   27.3256 N   0  0  0  0  0  0  0  0  0  0  0  0
   -0.9289  -51.0046   26.0655 C   0  0  0  0  0  0  0  0  0  0  0  0
   -2.1350  -50.8913   25.1809 C   0  0  0  0  0  0  0  0  0  0  0  0
   -2.0673  -50.0805   23.9208 C   0  0  0  0  0  0  0  0  0  0  0  0
    0.3448  -50.3071   25.6900 N   0  0  0  0  0  0  0  0  0  0  0  0
    1.4885  -51.0908   25.1175 C   0  0  1  0  0  0  0  0  0  0  0  0
    2.8393  -51.0295   25.7669 C   0  0  0  0  0  0  0  0  0  0  0  0
    1.2814  -51.9359   23.8956 C   0  0  0  0  0  0  0  0  0  0  0  0
    1.3334  -53.4313   24.0004 C   0  0  0  0  0  0  0  0  0  0  0  0
    1.1263  -54.2764   22.7785 C   0  0  0  0  0  0  0  0  0  0  0  0
    0.8672  -53.6261   21.4519 C   0  0  0  0  0  0  0  0  0  0  0  0
    0.8152  -52.1306   21.3472 C   0  0  0  0  0  0  0  0  0  0  0  0
    1.0223  -51.2856   22.5690 C   0  0  0  0  0  0  0  0  0  0  0  0
   -3.2058  -49.1563   21.7760 C   0  0  0  0  0  0  0  0  0  0  0  0
   -0.3001  -50.2819   18.5295 N   0  3  1  0  0  0  0  0  0  0  0  0
    0.0375  -49.1795   19.4890 C   0  0  0  0  0  0  0  0  0  0  0  0
   -0.9310  -48.8043   20.5712 C   0  0  0  0  0  0  0  0  0  0  0  0
   -2.2372  -49.5315   20.6939 N   0  3  2  0  0  0  0  0  0  0  0  0
   -2.5748  -50.6339   19.7343 C   0  0  0  0  0  0  0  0  0  0  0  0
   -1.6063  -51.0091   18.6521 C   0  0  0  0  0  0  0  0  0  0  0  0
    1.5719  -51.8410   17.6268 C   0  0  0  0  0  0  0  0  0  0  0  0
    0.6684  -50.6571   17.4473 C   0  0  0  0  0  0  0  0  0  0  0  0
   -5.3770  -50.5868   22.8031 H   0  0  0  0  0  0  0  0  0  0  0  0
   -5.4911  -51.9554   24.9303 H   0  0  0  0  0  0  0  0  0  0  0  0
   -2.3168  -53.0709   28.5682 H   0  0  0  0  0  0  0  0  0  0  0  0
   -1.1910  -49.6006   23.6624 H   0  0  0  0  0  0  0  0  0  0  0  0
    0.4302  -49.3349   25.8193 H   0  0  0  0  0  0  0  0  0  0  0  0
    1.9550  -50.1450   24.9369 H   0  0  0  0  0  0  0  0  0  0  0  0
    3.0356  -51.9534   26.2697 H   0  0  0  0  0  0  0  0  0  0  0  0
    2.8588  -50.2272   26.4746 H   0  0  0  0  0  0  0  0  0  0  0  0
    3.5871  -50.8642   25.0197 H   0  0  0  0  0  0  0  0  0  0  0  0
    1.5117  -53.8787   24.9131 H   0  0  0  0  0  0  0  0  0  0  0  0
    1.1621  -55.3053   22.8506 H   0  0  0  0  0  0  0  0  0  0  0  0
    0.7247  -54.2075   20.6113 H   0  0  0  0  0  0  0  0  0  0  0  0
    0.6369  -51.6831   20.4345 H   0  0  0  0  0  0  0  0  0  0  0  0
    0.9865  -50.2567   22.4969 H   0  0  0  0  0  0  0  0  0  0  0  0
   -4.1822  -49.1823   21.3392 H   0  0  0  0  0  0  0  0  0  0  0  0
   -2.8429  -48.2078   22.1130 H   0  0  0  0  0  0  0  0  0  0  0  0
    0.3077  -50.4447   19.3323 H   0  0  0  0  0  0  0  0  0  0  0  0
    0.2019  -48.2995   18.9029 H   0  0  0  0  0  0  0  0  0  0  0  0
    0.8721  -49.5724   20.0312 H   0  0  0  0  0  0  0  0  0  0  0  0
   -1.1654  -47.7698   20.4309 H   0  0  0  0  0  0  0  0  0  0  0  0
   -0.4140  -49.0742   21.4683 H   0  0  0  0  0  0  0  0  0  0  0  0
   -2.0833  -49.6928   21.6892 H   0  0  0  0  0  0  0  0  0  0  0  0
   -3.4862  -50.3529   19.2493 H   0  0  0  0  0  0  0  0  0  0  0  0
   -2.5968  -51.5038   20.3570 H   0  0  0  0  0  0  0  0  0  0  0  0
   -2.1188  -50.8826   17.7214 H   0  0  0  0  0  0  0  0  0  0  0  0
   -1.3108  -52.0020   18.9198 H   0  0  0  0  0  0  0  0  0  0  0  0
    2.1881  -51.9542   16.7594 H   0  0  0  0  0  0  0  0  0  0  0  0
    0.9814  -52.7230   17.7624 H   0  0  0  0  0  0  0  0  0  0  0  0
    2.1907  -51.6903   18.4866 H   0  0  0  0  0  0  0  0  0  0  0  0
    0.0906  -50.8404   16.5656 H   0  0  0  0  0  0  0  0  0  0  0  0
    1.3474  -49.8303   17.4274 H   0  0  0  0  0  0  0  0  0  0  0  0
  1  2  2  0  0  0  0
  2  3  1  0  0  0  0
  2 29  1  0  0  0  0
  3  4  2  0  0  0  0
  3 30  1  0  0  0  0
  4  5  1  0  0  0  0
  5  6  2  0  0  0  0
  6  7  1  0  0  0  0
  6 31  1  0  0  0  0
  7  8  2  0  0  0  0
  8 11  1  0  0  0  0
  8  9  1  0  0  0  0
  9 10  2  0  0  0  0
  9  4  1  0  0  0  0
 10  1  1  0  0  0  0
 10 32  1  0  0  0  0
 11 12  1  0  0  0  0
 11 33  1  0  0  0  0
 12 13  1  0  0  0  0
 12 14  1  0  0  0  0
 12 34  1  6  0  0  0
 13 35  1  0  0  0  0
 13 36  1  0  0  0  0
 13 37  1  0  0  0  0
 14 15  2  0  0  0  0
 15 16  1  0  0  0  0
 15 38  1  0  0  0  0
 16 17  2  0  0  0  0
 16 39  1  0  0  0  0
 17 18  1  0  0  0  0
 17 40  1  0  0  0  0
 18 19  2  0  0  0  0
 18 41  1  0  0  0  0
 19 14  1  0  0  0  0
 19 42  1  0  0  0  0
 20  1  1  0  0  0  0
 20 43  1  0  0  0  0
 20 44  1  0  0  0  0
 21 22  1  0  0  0  0
 21 45  1  1  0  0  0
 22 23  1  0  0  0  0
 22 46  1  0  0  0  0
 22 47  1  0  0  0  0
 23 24  1  0  0  0  0
 23 48  1  0  0  0  0
 23 49  1  0  0  0  0
 24 20  1  0  0  0  0
 24 25  1  0  0  0  0
 24 50  1  1  0  0  0
 25 26  1  0  0  0  0
 25 51  1  0  0  0  0
 25 52  1  0  0  0  0
 26 21  1  0  0  0  0
 26 53  1  0  0  0  0
 26 54  1  0  0  0  0
 27 28  1  0  0  0  0
 27 55  1  0  0  0  0
 27 56  1  0  0  0  0
 27 57  1  0  0  0  0
 28 21  1  0  0  0  0
 28 58  1  0  0  0  0
 28 59  1  0  0  0  0
M  CHG  2  21   1  24   1
M  END
>  <minimizedAffinity>
-8.46860

$$$$

 OpenBabel09092411003D

 59 62  0  0  0  0  0  0  0  0999 V2000
   -3.2734  -49.9672   23.0362 C   0  0  0  0  0  0  0  0  0  0  0  0
   -4.5472  -50.6647   23.4117 C   0  0  0  0  0  0  0  0  0  0  0  0
   -4.6148  -51.4755   24.6719 C   0  0  0  0  0  0  0  0  0  0  0  0
   -3.4087  -51.5888   25.5565 C   0  0  0  0  0  0  0  0  0  0  0  0
   -3.4764  -52.3997   26.8166 N   0  0  0  0  0  0  0  0  0  0  0  0
   -2.2703  -52.5130   27.7012 C   0  0  0  0  0  0  0  0  0  0  0  0
   -0.9965  -51.8154   27.3256 N   0  0  0  0  0  0  0  0  0  0  0  0
   -0.9289  -51.0046   26.0655 C   0  0  0  0  0  0  0  0  0  0  0  0
   -2.1350  -50.8913   25.1809 C   0  0  0  0  0  0  0  0  0  0  0  0
   -2.0673  -50.0805   23.9208 C   0  0  0  0  0  0  0  0  0  0  0  0
    0.3448  -50.3071   25.6900 N   0  0  0  0  0  0  0  0  0  0  0  0
    1.4885  -51.0908   25.1175 C   0  0  1  0  0  0  0  0  0  0  0  0
    2.8393  -51.0295   25.7669 C   0  0  0  0  0  0  0  0  0  0  0  0
    1.2814  -51.9359   23.8956 C   0  0  0  0  0  0  0  0  0  0  0  0
    1.3334  -53.4313   24.0004 C   0  0  0  0  0  0  0  0  0  0  0  0
    1.1263  -54.2764   22.7785 C   0  0  0  0  0  0  0  0  0  0  0  0
    0.8672  -53.6261   21.4519 C   0  0  0  0  0  0  0  0  0  0  0  0
    0.8152  -52.1306   21.3472 C   0  0  0  0  0  0  0  0  0  0  0  0
    1.0223  -51.2856   22.5690 C   0  0  0  0  0  0  0  0  0  0  0  0
   -3.2058  -49.1563   21.7760 C   0  0  0  0  0  0  0  0  0  0  0  0
   -0.3001  -50.2819   18.5295 N   0  3  1  0  0  0  0  0  0  0  0  0
    0.0375  -49.1795   19.4890 C   0  0  0  0  0  0  0  0  0  0  0  0
   -0.9310  -48.8043   20.5712 C   0  0  0  0  0  0  0  0  0  0  0  0
   -2.2372  -49.5315   20.6939 N   0  3  2  0  0  0  0  0  0  0  0  0
   -2.5748  -50.6339   19.7343 C   0  0  0  0  0  0  0  0  0  0  0  0
   -1.6063  -51.0091   18.6521 C   0  0  0  0  0  0  0  0  0  0  0  0
    1.5719  -51.8410   17.6268 C   0  0  0  0  0  0  0  0  0  0  0  0
    0.6684  -50.6571   17.4473 C   0  0  0  0  0  0  0  0  0  0  0  0
   -5.3770  -50.5868   22.8031 H   0  0  0  0  0  0  0  0  0  0  0  0
   -5.4911  -51.9554   24.9303 H   0  0  0  0  0  0  0  0  0  0  0  0
   -2.3168  -53.0709   28.5682 H   0  0  0  0  0  0  0  0  0  0  0  0
   -1.1910  -49.6006   23.6624 H   0  0  0  0  0  0  0  0  0  0  0  0
    0.4302  -49.3349   25.8193 H   0  0  0  0  0  0  0  0  0  0  0  0
    1.9550  -50.1450   24.9369 H   0  0  0  0  0  0  0  0  0  0  0  0
    3.0356  -51.9534   26.2697 H   0  0  0  0  0  0  0  0  0  0  0  0
    2.8588  -50.2272   26.4746 H   0  0  0  0  0  0  0  0  0  0  0  0
    3.5871  -50.8642   25.0197 H   0  0  0  0  0  0  0  0  0  0  0  0
    1.5117  -53.8787   24.9131 H   0  0  0  0  0  0  0  0  0  0  0  0
    1.1621  -55.3053   22.8506 H   0  0  0  0  0  0  0  0  0  0  0  0
    0.7247  -54.2075   20.6113 H   0  0  0  0  0  0  0  0  0  0  0  0
    0.6369  -51.6831   20.4345 H   0  0  0  0  0  0  0  0  0  0  0  0
    0.9865  -50.2567   22.4969 H   0  0  0  0  0  0  0  0  0  0  0  0
   -4.1822  -49.1823   21.3392 H   0  0  0  0  0  0  0  0  0  0  0  0
   -2.8429  -48.2078   22.1130 H   0  0  0  0  0  0  0  0  0  0  0  0
    0.3077  -50.4447   19.3323 H   0  0  0  0  0  0  0  0  0  0  0  0
    0.2019  -48.2995   18.9029 H   0  0  0  0  0  0  0  0  0  0  0  0
    0.8721  -49.5724   20.0312 H   0  0  0  0  0  0  0  0  0  0  0  0
   -1.1654  -47.7698   20.4309 H   0  0  0  0  0  0  0  0  0  0  0  0
   -0.4140  -49.0742   21.4683 H   0  0  0  0  0  0  0  0  0  0  0  0
   -2.0833  -49.6928   21.6892 H   0  0  0  0  0  0  0  0  0  0  0  0
   -3.4862  -50.3529   19.2493 H   0  0  0  0  0  0  0  0  0  0  0  0
   -2.5968  -51.5038   20.3570 H   0  0  0  0  0  0  0  0  0  0  0  0
   -2.1188  -50.8826   17.7214 H   0  0  0  0  0  0  0  0  0  0  0  0
   -1.3108  -52.0020   18.9198 H   0  0  0  0  0  0  0  0  0  0  0  0
    2.1881  -51.9542   16.7594 H   0  0  0  0  0  0  0  0  0  0  0  0
    0.9814  -52.7230   17.7624 H   0  0  0  0  0  0  0  0  0  0  0  0
    2.1907  -51.6903   18.4866 H   0  0  0  0  0  0  0  0  0  0  0  0
    0.0906  -50.8404   16.5656 H   0  0  0  0  0  0  0  0  0  0  0  0
    1.3474  -49.8303   17.4274 H   0  0  0  0  0  0  0  0  0  0  0  0
  1  2  2  0  0  0  0
  2  3  1  0  0  0  0
  2 29  1  0  0  0  0
  3  4  2  0  0  0  0
  3 30  1  0  0  0  0
  4  5  1  0  0  0  0
  5  6  2  0  0  0  0
  6  7  1  0  0  0  0
  6 31  1  0  0  0  0
  7  8  2  0  0  0  0
  8 11  1  0  0  0  0
  8  9  1  0  0  0  0
  9 10  2  0  0  0  0
  9  4  1  0  0  0  0
 10  1  1  0  0  0  0
 10 32  1  0  0  0  0
 11 12  1  0  0  0  0
 11 33  1  0  0  0  0
 12 13  1  0  0  0  0
 12 14  1  0  0  0  0
 12 34  1  6  0  0  0
 13 35  1  0  0  0  0
 13 36  1  0  0  0  0
 13 37  1  0  0  0  0
 14 15  2  0  0  0  0
 15 16  1  0  0  0  0
 15 38  1  0  0  0  0
 16 17  2  0  0  0  0
 16 39  1  0  0  0  0
 17 18  1  0  0  0  0
 17 40  1  0  0  0  0
 18 19  2  0  0  0  0
 18 41  1  0  0  0  0
 19 14  1  0  0  0  0
 19 42  1  0  0  0  0
 20  1  1  0  0  0  0
 20 43  1  0  0  0  0
 20 44  1  0  0  0  0
 21 22  1  0  0  0  0
 21 45  1  1  0  0  0
 22 23  1  0  0  0  0
 22 46  1  0  0  0  0
 22 47  1  0  0  0  0
 23 24  1  0  0  0  0
 23 48  1  0  0  0  0
 23 49  1  0  0  0  0
 24 20  1  0  0  0  0
 24 25  1  0  0  0  0
 24 50  1  1  0  0  0
 25 26  1  0  0  0  0
 25 51  1  0  0  0  0
 25 52  1  0  0  0  0
 26 21  1  0  0  0  0
 26 53  1  0  0  0  0
 26 54  1  0  0  0  0
 27 28  1  0  0  0  0
 27 55  1  0  0  0  0
 27 56  1  0  0  0  0
 27 57  1  0  0  0  0
 28 21  1  0  0  0  0
 28 58  1  0  0  0  0
 28 59  1  0  0  0  0
M  CHG  2  21   1  24   1
M  END
>  <minimizedAffinity>
-8.46860

$$$$

 OpenBabel09092411003D

 56 59  0  0  0  0  0  0  0  0999 V2000
   -3.9066  -51.0212   22.7892 C   0  0  0  0  0  0  0  0  0  0  0  0
   -2.5918  -51.7092   23.0084 C   0  0  0  0  0  0  0  0  0  0  0  0
   -2.4171  -51.9160   24.4838 C   0  0  0  0  0  0  0  0  0  0  0  0
   -1.3150  -52.5420   25.2860 C   0  0  0  0  0  0  0  0  0  0  0  0
   -1.4197  -52.6079   26.7808 N   0  0  0  0  0  0  0  0  0  0  0  0
   -2.6265  -52.0477   27.4735 C   0  0  0  0  0  0  0  0  0  0  0  0
   -3.7286  -51.4217   26.6713 N   0  0  0  0  0  0  0  0  0  0  0  0
   -3.6239  -51.3558   25.1765 C   0  0  0  0  0  0  0  0  0  0  0  0
   -4.5444  -50.8028   24.1292 S   0  0  0  0  0  0  0  0  0  0  0  0
   -0.1082  -53.1022   24.5932 N   0  0  0  0  0  0  0  0  0  0  0  0
    0.8462  -52.1838   23.8892 C   0  0  2  0  0  0  0  0  0  0  0  0
    1.7349  -51.2733   24.6837 C   0  0  0  0  0  0  0  0  0  0  0  0
    0.9118  -52.1758   22.3906 C   0  0  0  0  0  0  0  0  0  0  0  0
    0.7897  -50.8820   21.6414 C   0  0  0  0  0  0  0  0  0  0  0  0
    0.8553  -50.8740   20.1429 C   0  0  0  0  0  0  0  0  0  0  0  0
    1.0430  -52.1598   19.3936 C   0  0  0  0  0  0  0  0  0  0  0  0
    1.1650  -53.4536   20.1428 C   0  0  0  0  0  0  0  0  0  0  0  0
    1.0994  -53.4616   21.6413 C   0  0  0  0  0  0  0  0  0  0  0  0
   -4.4824  -50.6217   21.4630 C   0  0  0  0  0  0  0  0  0  0  0  0
   -1.8040  -48.9407   18.2614 N   0  3  1  0  0  0  0  0  0  0  0  0
   -2.1717  -50.3949   18.2445 C   0  0  0  0  0  0  0  0  0  0  0  0
   -3.0645  -50.9552   19.3117 C   0  0  0  0  0  0  0  0  0  0  0  0
   -3.5896  -50.0614   20.3958 N   0  3  1  0  0  0  0  0  0  0  0  0
   -3.2220  -48.6073   20.4128 C   0  0  0  0  0  0  0  0  0  0  0  0
   -2.3292  -48.0469   19.3456 C   0  0  0  0  0  0  0  0  0  0  0  0
    0.3855  -49.0602   16.8679 C   0  0  0  0  0  0  0  0  0  0  0  0
   -0.9112  -48.3804   17.1943 C   0  0  0  0  0  0  0  0  0  0  0  0
   -1.9246  -51.9908   22.2732 H   0  0  0  0  0  0  0  0  0  0  0  0
   -2.6985  -52.0930   28.5020 H   0  0  0  0  0  0  0  0  0  0  0  0
    0.0574  -54.0726   24.6006 H   0  0  0  0  0  0  0  0  0  0  0  0
    1.6820  -52.7839   24.1828 H   0  0  0  0  0  0  0  0  0  0  0  0
    1.2944  -50.2995   24.7338 H   0  0  0  0  0  0  0  0  0  0  0  0
    2.6925  -51.2077   24.2108 H   0  0  0  0  0  0  0  0  0  0  0  0
    1.8517  -51.6632   25.6733 H   0  0  0  0  0  0  0  0  0  0  0  0
    0.6606  -49.9974   22.1570 H   0  0  0  0  0  0  0  0  0  0  0  0
    0.7713  -49.9839   19.6274 H   0  0  0  0  0  0  0  0  0  0  0  0
    1.0882  -52.1543   18.3626 H   0  0  0  0  0  0  0  0  0  0  0  0
    1.2941  -54.3382   19.6272 H   0  0  0  0  0  0  0  0  0  0  0  0
    1.1833  -54.3517   22.1567 H   0  0  0  0  0  0  0  0  0  0  0  0
   -4.9453  -51.4944   21.0517 H   0  0  0  0  0  0  0  0  0  0  0  0
   -5.1184  -49.7973   21.7094 H   0  0  0  0  0  0  0  0  0  0  0  0
   -1.7267  -48.4649   17.3625 H   0  0  0  0  0  0  0  0  0  0  0  0
   -1.2554  -50.9457   18.2877 H   0  0  0  0  0  0  0  0  0  0  0  0
   -2.7609  -50.4893   17.3563 H   0  0  0  0  0  0  0  0  0  0  0  0
   -2.5159  -51.7368   19.7944 H   0  0  0  0  0  0  0  0  0  0  0  0
   -3.9465  -51.2333   18.7735 H   0  0  0  0  0  0  0  0  0  0  0  0
   -2.8945  -50.2772   19.6812 H   0  0  0  0  0  0  0  0  0  0  0  0
   -2.7382  -48.4219   21.3490 H   0  0  0  0  0  0  0  0  0  0  0  0
   -4.1556  -48.1155   20.2357 H   0  0  0  0  0  0  0  0  0  0  0  0
   -1.4778  -47.6307   19.8423 H   0  0  0  0  0  0  0  0  0  0  0  0
   -2.9701  -47.3714   18.8185 H   0  0  0  0  0  0  0  0  0  0  0  0
    0.8836  -48.5227   16.0883 H   0  0  0  0  0  0  0  0  0  0  0  0
    0.1916  -50.0612   16.5434 H   0  0  0  0  0  0  0  0  0  0  0  0
    1.0062  -49.0816   17.7392 H   0  0  0  0  0  0  0  0  0  0  0  0
   -1.4848  -48.3594   16.2913 H   0  0  0  0  0  0  0  0  0  0  0  0
   -0.6006  -47.4410   17.6018 H   0  0  0  0  0  0  0  0  0  0  0  0
  1  2  2  0  0  0  0
  2  3  1  0  0  0  0
  2 28  1  0  0  0  0
  3  4  2  0  0  0  0
  4 10  1  0  0  0  0
  4  5  1  0  0  0  0
  5  6  2  0  0  0  0
  6  7  1  0  0  0  0
  6 29  1  0  0  0  0
  7  8  2  0  0  0  0
  8  9  1  0  0  0  0
  8  3  1  0  0  0  0
  9  1  1  0  0  0  0
 10 11  1  0  0  0  0
 10 30  1  0  0  0  0
 11 12  1  0  0  0  0
 11 13  1  0  0  0  0
 11 31  1  1  0  0  0
 12 32  1  0  0  0  0
 12 33  1  0  0  0  0
 12 34  1  0  0  0  0
 13 14  2  0  0  0  0
 14 15  1  0  0  0  0
 14 35  1  0  0  0  0
 15 16  2  0  0  0  0
 15 36  1  0  0  0  0
 16 17  1  0  0  0  0
 16 37  1  0  0  0  0
 17 18  2  0  0  0  0
 17 38  1  0  0  0  0
 18 13  1  0  0  0  0
 18 39  1  0  0  0  0
 19  1  1  0  0  0  0
 19 40  1  0  0  0  0
 19 41  1  0  0  0  0
 20 21  1  0  0  0  0
 20 42  1  6  0  0  0
 21 22  1  0  0  0  0
 21 43  1  0  0  0  0
 21 44  1  0  0  0  0
 22 23  1  0  0  0  0
 22 45  1  0  0  0  0
 22 46  1  0  0  0  0
 23 19  1  0  0  0  0
 23 24  1  0  0  0  0
 23 47  1  1  0  0  0
 24 25  1  0  0  0  0
 24 48  1  0  0  0  0
 24 49  1  0  0  0  0
 25 20  1  0  0  0  0
 25 50  1  0  0  0  0
 25 51  1  0  0  0  0
 26 27  1  0  0  0  0
 26 52  1  0  0  0  0
 26 53  1  0  0  0  0
 26 54  1  0  0  0  0
 27 20  1  0  0  0  0
 27 55  1  0  0  0  0
 27 56  1  0  0  0  0
M  CHG  2  20   1  23   1
M  END
>  <minimizedAffinity>
-8.33714

$$$$

 OpenBabel09092411003D

 60 63  0  0  0  0  0  0  0  0999 V2000
    0.5150  -51.8431   22.3328 C   0  0  0  0  0  0  0  0  0  0  0  0
    0.4509  -51.3819   20.9069 C   0  0  0  0  0  0  0  0  0  0  0  0
    1.0103  -52.2437   19.8141 C   0  0  0  0  0  0  0  0  0  0  0  0
    1.6337  -53.5667   20.1471 N   0  0  0  0  0  0  0  0  0  0  0  0
    1.6978  -54.0279   21.5730 C   0  0  0  0  0  0  0  0  0  0  0  0
    1.1385  -53.1661   22.6658 N   0  0  0  0  0  0  0  0  0  0  0  0
    0.9462  -51.7825   18.3881 C   0  0  0  0  0  0  0  0  0  0  0  0
    1.8704  -52.3750   17.3660 C   0  0  0  0  0  0  0  0  0  0  0  0
    1.8064  -51.9139   15.9401 C   0  0  0  0  0  0  0  0  0  0  0  0
    0.8181  -50.8602   15.5363 C   0  0  0  0  0  0  0  0  0  0  0  0
   -0.1061  -50.2677   16.5584 C   0  0  0  0  0  0  0  0  0  0  0  0
   -0.0421  -50.7289   17.9843 C   0  0  0  0  0  0  0  0  0  0  0  0
    0.7541  -50.3991   14.1104 C   0  0  0  0  0  0  0  0  0  0  0  0
   -0.2104  -51.0405   13.1573 N   0  3  1  0  0  0  0  0  0  0  0  0
   -1.6806  -50.7710   13.2832 C   0  0  0  0  0  0  0  0  0  0  0  0
   -2.6450  -51.4124   12.3301 C   0  0  0  0  0  0  0  0  0  0  0  0
   -2.1393  -52.3234   11.2511 N   0  3  1  0  0  0  0  0  0  0  0  0
   -3.1037  -52.9648   10.2980 C   0  0  0  0  0  0  0  0  0  0  0  0
   -0.6691  -52.5929   11.1251 C   0  0  0  0  0  0  0  0  0  0  0  0
    0.2953  -51.9514   12.0782 C   0  0  0  0  0  0  0  0  0  0  0  0
   -0.0444  -50.9812   23.4257 N   0  0  0  0  0  0  0  0  0  0  0  0
   -1.8038  -52.1447   24.9425 C   0  0  0  0  0  0  0  0  0  0  0  0
   -0.4239  -51.5917   24.7422 C   0  0  2  0  0  0  0  0  0  0  0  0
    0.5764  -51.6492   25.8585 C   0  0  0  0  0  0  0  0  0  0  0  0
    0.1424  -52.0608   27.2340 C   0  0  0  0  0  0  0  0  0  0  0  0
    1.1427  -52.1182   28.3503 C   0  0  0  0  0  0  0  0  0  0  0  0
    2.5770  -51.7641   28.0910 C   0  0  0  0  0  0  0  0  0  0  0  0
    3.0111  -51.3524   26.7154 C   0  0  0  0  0  0  0  0  0  0  0  0
    2.0108  -51.2950   25.5992 C   0  0  0  0  0  0  0  0  0  0  0  0
    0.0219  -50.4717   20.6778 H   0  0  0  0  0  0  0  0  0  0  0  0
    2.1267  -54.9382   21.8021 H   0  0  0  0  0  0  0  0  0  0  0  0
    2.5503  -53.0999   17.6438 H   0  0  0  0  0  0  0  0  0  0  0  0
    2.4423  -52.3216   15.2369 H   0  0  0  0  0  0  0  0  0  0  0  0
   -0.7860  -49.5427   16.2806 H   0  0  0  0  0  0  0  0  0  0  0  0
   -0.6780  -50.3213   18.6875 H   0  0  0  0  0  0  0  0  0  0  0  0
    1.7321  -50.5343   13.6979 H   0  0  0  0  0  0  0  0  0  0  0  0
    0.3891  -49.3966   14.1922 H   0  0  0  0  0  0  0  0  0  0  0  0
   -0.1041  -50.8808   14.1591 H   0  0  0  0  0  0  0  0  0  0  0  0
   -1.8099  -49.7131   13.1882 H   0  0  0  0  0  0  0  0  0  0  0  0
   -1.9323  -51.2149   14.2237 H   0  0  0  0  0  0  0  0  0  0  0  0
   -3.1715  -50.6187   11.8426 H   0  0  0  0  0  0  0  0  0  0  0  0
   -3.2130  -52.0666   12.9581 H   0  0  0  0  0  0  0  0  0  0  0  0
   -2.5297  -52.9795   11.9275 H   0  0  0  0  0  0  0  0  0  0  0  0
   -3.0101  -52.5084    9.3348 H   0  0  0  0  0  0  0  0  0  0  0  0
   -4.1024  -52.8339   10.6591 H   0  0  0  0  0  0  0  0  0  0  0  0
   -2.8866  -54.0097   10.2202 H   0  0  0  0  0  0  0  0  0  0  0  0
   -0.3819  -52.2853   10.1413 H   0  0  0  0  0  0  0  0  0  0  0  0
   -0.5891  -53.6342   11.3579 H   0  0  0  0  0  0  0  0  0  0  0  0
    0.9797  -51.3796   11.4869 H   0  0  0  0  0  0  0  0  0  0  0  0
    0.6915  -52.7824   12.6235 H   0  0  0  0  0  0  0  0  0  0  0  0
   -0.1624  -50.0149   23.2789 H   0  0  0  0  0  0  0  0  0  0  0  0
   -2.3730  -52.0168   24.0455 H   0  0  0  0  0  0  0  0  0  0  0  0
   -2.2830  -51.6254   25.7460 H   0  0  0  0  0  0  0  0  0  0  0  0
   -1.7398  -53.1863   25.1789 H   0  0  0  0  0  0  0  0  0  0  0  0
    0.4198  -51.7972   24.1170 H   0  0  0  0  0  0  0  0  0  0  0  0
   -0.8444  -52.3045   27.4124 H   0  0  0  0  0  0  0  0  0  0  0  0
    0.8441  -52.4013   29.2967 H   0  0  0  0  0  0  0  0  0  0  0  0
    3.2652  -51.8037   28.8590 H   0  0  0  0  0  0  0  0  0  0  0  0
    3.9979  -51.1087   26.5370 H   0  0  0  0  0  0  0  0  0  0  0  0
    2.3094  -51.0118   24.6528 H   0  0  0  0  0  0  0  0  0  0  0  0
  1  2  2  0  0  0  0
  2  3  1  0  0  0  0
  2 30  1  0  0  0  0
  3  7  1  0  0  0  0
  3  4  2  0  0  0  0
  4  5  1  0  0  0  0
  5  6  2  0  0  0  0
  5 31  1  0  0  0  0
  6  1  1  0  0  0  0
  7  8  2  0  0  0  0
  8  9  1  0  0  0  0
  8 32  1  0  0  0  0
  9 10  2  0  0  0  0
  9 33  1  0  0  0  0
 10 13  1  0  0  0  0
 10 11  1  0  0  0  0
 11 12  2  0  0  0  0
 11 34  1  0  0  0  0
 12  7  1  0  0  0  0
 12 35  1  0  0  0  0
 13 14  1  0  0  0  0
 13 36  1  0  0  0  0
 13 37  1  0  0  0  0
 14 15  1  0  0  0  0
 14 38  1  1  0  0  0
 15 16  1  0  0  0  0
 15 39  1  0  0  0  0
 15 40  1  0  0  0  0
 16 17  1  0  0  0  0
 16 41  1  0  0  0  0
 16 42  1  0  0  0  0
 17 18  1  0  0  0  0
 17 19  1  0  0  0  0
 17 43  1  1  0  0  0
 18 44  1  0  0  0  0
 18 45  1  0  0  0  0
 18 46  1  0  0  0  0
 19 20  1  0  0  0  0
 19 47  1  0  0  0  0
 19 48  1  0  0  0  0
 20 14  1  0  0  0  0
 20 49  1  0  0  0  0
 20 50  1  0  0  0  0
 21  1  1  0  0  0  0
 21 51  1  0  0  0  0
 22 52  1  0  0  0  0
 22 53  1  0  0  0  0
 22 54  1  0  0  0  0
 23 22  1  0  0  0  0
 23 21  1  0  0  0  0
 23 24  1  0  0  0  0
 23 55  1  6  0  0  0
 24 25  2  0  0  0  0
 25 26  1  0  0  0  0
 25 56  1  0  0  0  0
 26 27  2  0  0  0  0
 26 57  1  0  0  0  0
 27 28  1  0  0  0  0
 27 58  1  0  0  0  0
 28 29  2  0  0  0  0
 28 59  1  0  0  0  0
 29 24  1  0  0  0  0
 29 60  1  0  0  0  0
M  CHG  2  14   1  17   1
M  END
>  <minimizedAffinity>
-9.20240

$$$$

 OpenBabel09092411003D

 60 63  0  0  0  0  0  0  0  0999 V2000
    0.5150  -51.8431   22.3328 C   0  0  0  0  0  0  0  0  0  0  0  0
    0.4509  -51.3819   20.9069 C   0  0  0  0  0  0  0  0  0  0  0  0
    1.0103  -52.2437   19.8141 C   0  0  0  0  0  0  0  0  0  0  0  0
    1.6337  -53.5667   20.1471 N   0  0  0  0  0  0  0  0  0  0  0  0
    1.6978  -54.0279   21.5730 C   0  0  0  0  0  0  0  0  0  0  0  0
    1.1385  -53.1661   22.6658 N   0  0  0  0  0  0  0  0  0  0  0  0
    0.9462  -51.7825   18.3881 C   0  0  0  0  0  0  0  0  0  0  0  0
    1.8704  -52.3750   17.3660 C   0  0  0  0  0  0  0  0  0  0  0  0
    1.8064  -51.9139   15.9401 C   0  0  0  0  0  0  0  0  0  0  0  0
    0.8181  -50.8602   15.5363 C   0  0  0  0  0  0  0  0  0  0  0  0
   -0.1061  -50.2677   16.5584 C   0  0  0  0  0  0  0  0  0  0  0  0
   -0.0421  -50.7289   17.9843 C   0  0  0  0  0  0  0  0  0  0  0  0
    0.7541  -50.3991   14.1104 C   0  0  0  0  0  0  0  0  0  0  0  0
   -0.2104  -51.0405   13.1573 N   0  3  1  0  0  0  0  0  0  0  0  0
   -1.6806  -50.7710   13.2832 C   0  0  0  0  0  0  0  0  0  0  0  0
   -2.6450  -51.4124   12.3301 C   0  0  0  0  0  0  0  0  0  0  0  0
   -2.1393  -52.3234   11.2511 N   0  3  1  0  0  0  0  0  0  0  0  0
   -3.1037  -52.9648   10.2980 C   0  0  0  0  0  0  0  0  0  0  0  0
   -0.6691  -52.5929   11.1251 C   0  0  0  0  0  0  0  0  0  0  0  0
    0.2953  -51.9514   12.0782 C   0  0  0  0  0  0  0  0  0  0  0  0
   -0.0444  -50.9812   23.4257 N   0  0  0  0  0  0  0  0  0  0  0  0
   -1.8038  -52.1447   24.9425 C   0  0  0  0  0  0  0  0  0  0  0  0
   -0.4239  -51.5917   24.7422 C   0  0  2  0  0  0  0  0  0  0  0  0
    0.5764  -51.6492   25.8585 C   0  0  0  0  0  0  0  0  0  0  0  0
    0.1424  -52.0608   27.2340 C   0  0  0  0  0  0  0  0  0  0  0  0
    1.1427  -52.1182   28.3503 C   0  0  0  0  0  0  0  0  0  0  0  0
    2.5770  -51.7641   28.0910 C   0  0  0  0  0  0  0  0  0  0  0  0
    3.0111  -51.3524   26.7154 C   0  0  0  0  0  0  0  0  0  0  0  0
    2.0108  -51.2950   25.5992 C   0  0  0  0  0  0  0  0  0  0  0  0
    0.0219  -50.4717   20.6778 H   0  0  0  0  0  0  0  0  0  0  0  0
    2.1267  -54.9382   21.8021 H   0  0  0  0  0  0  0  0  0  0  0  0
    2.5503  -53.0999   17.6438 H   0  0  0  0  0  0  0  0  0  0  0  0
    2.4423  -52.3216   15.2369 H   0  0  0  0  0  0  0  0  0  0  0  0
   -0.7860  -49.5427   16.2806 H   0  0  0  0  0  0  0  0  0  0  0  0
   -0.6780  -50.3213   18.6875 H   0  0  0  0  0  0  0  0  0  0  0  0
    1.7321  -50.5343   13.6979 H   0  0  0  0  0  0  0  0  0  0  0  0
    0.3891  -49.3966   14.1922 H   0  0  0  0  0  0  0  0  0  0  0  0
   -0.1041  -50.8808   14.1591 H   0  0  0  0  0  0  0  0  0  0  0  0
   -1.8099  -49.7131   13.1882 H   0  0  0  0  0  0  0  0  0  0  0  0
   -1.9323  -51.2149   14.2237 H   0  0  0  0  0  0  0  0  0  0  0  0
   -3.1715  -50.6187   11.8426 H   0  0  0  0  0  0  0  0  0  0  0  0
   -3.2130  -52.0666   12.9581 H   0  0  0  0  0  0  0  0  0  0  0  0
   -2.5297  -52.9795   11.9275 H   0  0  0  0  0  0  0  0  0  0  0  0
   -3.0101  -52.5084    9.3348 H   0  0  0  0  0  0  0  0  0  0  0  0
   -4.1024  -52.8339   10.6591 H   0  0  0  0  0  0  0  0  0  0  0  0
   -2.8866  -54.0097   10.2202 H   0  0  0  0  0  0  0  0  0  0  0  0
   -0.3819  -52.2853   10.1413 H   0  0  0  0  0  0  0  0  0  0  0  0
   -0.5891  -53.6342   11.3579 H   0  0  0  0  0  0  0  0  0  0  0  0
    0.9797  -51.3796   11.4869 H   0  0  0  0  0  0  0  0  0  0  0  0
    0.6915  -52.7824   12.6235 H   0  0  0  0  0  0  0  0  0  0  0  0
   -0.1624  -50.0149   23.2789 H   0  0  0  0  0  0  0  0  0  0  0  0
   -2.3730  -52.0168   24.0455 H   0  0  0  0  0  0  0  0  0  0  0  0
   -2.2830  -51.6254   25.7460 H   0  0  0  0  0  0  0  0  0  0  0  0
   -1.7398  -53.1863   25.1789 H   0  0  0  0  0  0  0  0  0  0  0  0
    0.4198  -51.7972   24.1170 H   0  0  0  0  0  0  0  0  0  0  0  0
   -0.8444  -52.3045   27.4124 H   0  0  0  0  0  0  0  0  0  0  0  0
    0.8441  -52.4013   29.2967 H   0  0  0  0  0  0  0  0  0  0  0  0
    3.2652  -51.8037   28.8590 H   0  0  0  0  0  0  0  0  0  0  0  0
    3.9979  -51.1087   26.5370 H   0  0  0  0  0  0  0  0  0  0  0  0
    2.3094  -51.0118   24.6528 H   0  0  0  0  0  0  0  0  0  0  0  0
  1  2  2  0  0  0  0
  2  3  1  0  0  0  0
  2 30  1  0  0  0  0
  3  7  1  0  0  0  0
  3  4  2  0  0  0  0
  4  5  1  0  0  0  0
  5  6  2  0  0  0  0
  5 31  1  0  0  0  0
  6  1  1  0  0  0  0
  7  8  2  0  0  0  0
  8  9  1  0  0  0  0
  8 32  1  0  0  0  0
  9 10  2  0  0  0  0
  9 33  1  0  0  0  0
 10 13  1  0  0  0  0
 10 11  1  0  0  0  0
 11 12  2  0  0  0  0
 11 34  1  0  0  0  0
 12  7  1  0  0  0  0
 12 35  1  0  0  0  0
 13 14  1  0  0  0  0
 13 36  1  0  0  0  0
 13 37  1  0  0  0  0
 14 15  1  0  0  0  0
 14 38  1  1  0  0  0
 15 16  1  0  0  0  0
 15 39  1  0  0  0  0
 15 40  1  0  0  0  0
 16 17  1  0  0  0  0
 16 41  1  0  0  0  0
 16 42  1  0  0  0  0
 17 18  1  0  0  0  0
 17 19  1  0  0  0  0
 17 43  1  1  0  0  0
 18 44  1  0  0  0  0
 18 45  1  0  0  0  0
 18 46  1  0  0  0  0
 19 20  1  0  0  0  0
 19 47  1  0  0  0  0
 19 48  1  0  0  0  0
 20 14  1  0  0  0  0
 20 49  1  0  0  0  0
 20 50  1  0  0  0  0
 21  1  1  0  0  0  0
 21 51  1  0  0  0  0
 22 52  1  0  0  0  0
 22 53  1  0  0  0  0
 22 54  1  0  0  0  0
 23 22  1  0  0  0  0
 23 21  1  0  0  0  0
 23 24  1  0  0  0  0
 23 55  1  6  0  0  0
 24 25  2  0  0  0  0
 25 26  1  0  0  0  0
 25 56  1  0  0  0  0
 26 27  2  0  0  0  0
 26 57  1  0  0  0  0
 27 28  1  0  0  0  0
 27 58  1  0  0  0  0
 28 29  2  0  0  0  0
 28 59  1  0  0  0  0
 29 24  1  0  0  0  0
 29 60  1  0  0  0  0
M  CHG  2  14   1  17   1
M  END
>  <minimizedAffinity>
-9.20240

$$$$

 OpenBabel09092411003D

 63 66  0  0  0  0  0  0  0  0999 V2000
    1.1768  -50.6396   15.5214 C   0  0  0  0  0  0  0  0  0  0  0  0
    0.4012  -49.9065   16.5755 C   0  0  0  0  0  0  0  0  0  0  0  0
    0.3969  -50.4087   17.9889 C   0  0  0  0  0  0  0  0  0  0  0  0
    1.1683  -51.6439   18.3482 C   0  0  0  0  0  0  0  0  0  0  0  0
    1.9438  -52.3770   17.2942 C   0  0  0  0  0  0  0  0  0  0  0  0
    1.9481  -51.8748   15.8807 C   0  0  0  0  0  0  0  0  0  0  0  0
    1.1640  -52.1461   19.7617 C   0  0  0  0  0  0  0  0  0  0  0  0
    0.6473  -51.2728   20.8664 C   0  0  0  0  0  0  0  0  0  0  0  0
    0.6430  -51.7750   22.2798 C   0  0  0  0  0  0  0  0  0  0  0  0
    1.1555  -53.1505   22.5885 N   0  0  0  0  0  0  0  0  0  0  0  0
    1.6722  -54.0238   21.4839 C   0  0  0  0  0  0  0  0  0  0  0  0
    1.6765  -53.5216   20.0705 N   0  0  0  0  0  0  0  0  0  0  0  0
    0.1263  -50.9017   23.3845 N   0  0  0  0  0  0  0  0  0  0  0  0
   -0.2756  -51.5097   24.6955 C   0  0  1  0  0  0  0  0  0  0  0  0
   -1.6711  -52.0256   24.8866 C   0  0  0  0  0  0  0  0  0  0  0  0
    0.7180  -51.6019   25.8155 C   0  0  0  0  0  0  0  0  0  0  0  0
    0.2674  -52.0131   27.1859 C   0  0  0  0  0  0  0  0  0  0  0  0
    1.2610  -52.1052   28.3058 C   0  0  0  0  0  0  0  0  0  0  0  0
    2.7051  -51.7861   28.0553 C   0  0  0  0  0  0  0  0  0  0  0  0
    3.1557  -51.3749   26.6850 C   0  0  0  0  0  0  0  0  0  0  0  0
    2.1621  -51.2828   25.5651 C   0  0  0  0  0  0  0  0  0  0  0  0
    1.1810  -50.1374   14.1080 C   0  0  0  0  0  0  0  0  0  0  0  0
   -2.0294  -51.4540   11.2427 N   0  3  1  0  0  0  0  0  0  0  0  0
   -2.2522  -50.2586   12.1210 C   0  0  0  0  0  0  0  0  0  0  0  0
   -1.1821  -49.8198   13.0761 C   0  0  0  0  0  0  0  0  0  0  0  0
    0.1108  -50.5762   13.1529 N   0  3  2  0  0  0  0  0  0  0  0  0
    0.3337  -51.7716   12.2746 C   0  0  0  0  0  0  0  0  0  0  0  0
   -0.7365  -52.2105   11.3195 C   0  0  0  0  0  0  0  0  0  0  0  0
   -4.1414  -52.8774   10.7294 C   0  0  0  0  0  0  0  0  0  0  0  0
   -3.0995  -51.8929   10.2876 C   0  0  0  0  0  0  0  0  0  0  0  0
   -0.1294  -49.0566   16.3283 H   0  0  0  0  0  0  0  0  0  0  0  0
   -0.1368  -49.9044   18.7141 H   0  0  0  0  0  0  0  0  0  0  0  0
    2.4744  -53.2269   17.5415 H   0  0  0  0  0  0  0  0  0  0  0  0
    2.4817  -52.3791   15.1555 H   0  0  0  0  0  0  0  0  0  0  0  0
    0.2948  -50.3264   20.6540 H   0  0  0  0  0  0  0  0  0  0  0  0
    2.0247  -54.9702   21.6963 H   0  0  0  0  0  0  0  0  0  0  0  0
    0.0510  -49.9295   23.2491 H   0  0  0  0  0  0  0  0  0  0  0  0
   -0.3471  -50.5400   24.2488 H   0  0  0  0  0  0  0  0  0  0  0  0
   -1.6341  -52.9973   25.3331 H   0  0  0  0  0  0  0  0  0  0  0  0
   -2.1615  -52.0876   23.9376 H   0  0  0  0  0  0  0  0  0  0  0  0
   -2.2131  -51.3600   25.5254 H   0  0  0  0  0  0  0  0  0  0  0  0
   -0.7262  -52.2326   27.3582 H   0  0  0  0  0  0  0  0  0  0  0  0
    0.9511  -52.3881   29.2486 H   0  0  0  0  0  0  0  0  0  0  0  0
    3.3887  -51.8495   28.8258 H   0  0  0  0  0  0  0  0  0  0  0  0
    4.1493  -51.1554   26.5127 H   0  0  0  0  0  0  0  0  0  0  0  0
    2.4721  -50.9999   24.6223 H   0  0  0  0  0  0  0  0  0  0  0  0
    1.1304  -49.0698   14.1594 H   0  0  0  0  0  0  0  0  0  0  0  0
    2.0697  -50.5685   13.6965 H   0  0  0  0  0  0  0  0  0  0  0  0
   -2.7892  -50.7881   11.3828 H   0  0  0  0  0  0  0  0  0  0  0  0
   -3.1238  -50.4638   12.7067 H   0  0  0  0  0  0  0  0  0  0  0  0
   -2.3073  -49.4484   11.4243 H   0  0  0  0  0  0  0  0  0  0  0  0
   -1.6130  -49.8444   14.0552 H   0  0  0  0  0  0  0  0  0  0  0  0
   -0.8864  -48.8657   12.6926 H   0  0  0  0  0  0  0  0  0  0  0  0
   -0.3747  -49.6822   13.2266 H   0  0  0  0  0  0  0  0  0  0  0  0
    0.5272  -52.6000   12.9236 H   0  0  0  0  0  0  0  0  0  0  0  0
    1.1265  -51.4575   11.6283 H   0  0  0  0  0  0  0  0  0  0  0  0
   -0.9838  -53.2196   11.5752 H   0  0  0  0  0  0  0  0  0  0  0  0
   -0.2946  -52.0404   10.3600 H   0  0  0  0  0  0  0  0  0  0  0  0
   -4.8156  -53.0700    9.9211 H   0  0  0  0  0  0  0  0  0  0  0  0
   -4.6845  -52.4741   11.5584 H   0  0  0  0  0  0  0  0  0  0  0  0
   -3.6674  -53.7904   11.0238 H   0  0  0  0  0  0  0  0  0  0  0  0
   -3.6197  -51.0100    9.9796 H   0  0  0  0  0  0  0  0  0  0  0  0
   -2.5556  -52.4299    9.5388 H   0  0  0  0  0  0  0  0  0  0  0  0
  1  2  2  0  0  0  0
  2  3  1  0  0  0  0
  2 31  1  0  0  0  0
  3  4  2  0  0  0  0
  3 32  1  0  0  0  0
  4  7  1  0  0  0  0
  4  5  1  0  0  0  0
  5  6  2  0  0  0  0
  5 33  1  0  0  0  0
  6  1  1  0  0  0  0
  6 34  1  0  0  0  0
  7  8  2  0  0  0  0
  8  9  1  0  0  0  0
  8 35  1  0  0  0  0
  9 13  1  0  0  0  0
  9 10  2  0  0  0  0
 10 11  1  0  0  0  0
 11 12  2  0  0  0  0
 11 36  1  0  0  0  0
 12  7  1  0  0  0  0
 13 14  1  0  0  0  0
 13 37  1  0  0  0  0
 14 15  1  0  0  0  0
 14 16  1  0  0  0  0
 14 38  1  1  0  0  0
 15 39  1  0  0  0  0
 15 40  1  0  0  0  0
 15 41  1  0  0  0  0
 16 17  2  0  0  0  0
 17 18  1  0  0  0  0
 17 42  1  0  0  0  0
 18 19  2  0  0  0  0
 18 43  1  0  0  0  0
 19 20  1  0  0  0  0
 19 44  1  0  0  0  0
 20 21  2  0  0  0  0
 20 45  1  0  0  0  0
 21 16  1  0  0  0  0
 21 46  1  0  0  0  0
 22  1  1  0  0  0  0
 22 47  1  0  0  0  0
 22 48  1  0  0  0  0
 23 24  1  0  0  0  0
 23 49  1  6  0  0  0
 24 25  1  0  0  0  0
 24 50  1  0  0  0  0
 24 51  1  0  0  0  0
 25 26  1  0  0  0  0
 25 52  1  0  0  0  0
 25 53  1  0  0  0  0
 26 22  1  0  0  0  0
 26 27  1  0  0  0  0
 26 54  1  6  0  0  0
 27 28  1  0  0  0  0
 27 55  1  0  0  0  0
 27 56  1  0  0  0  0
 28 23  1  0  0  0  0
 28 57  1  0  0  0  0
 28 58  1  0  0  0  0
 29 30  1  0  0  0  0
 29 59  1  0  0  0  0
 29 60  1  0  0  0  0
 29 61  1  0  0  0  0
 30 23  1  0  0  0  0
 30 62  1  0  0  0  0
 30 63  1  0  0  0  0
M  CHG  2  23   1  26   1
M  END
>  <minimizedAffinity>
-9.50141

$$$$

 OpenBabel09092411003D

 63 66  0  0  0  0  0  0  0  0999 V2000
    1.0304  -50.7932   16.0457 C   0  0  0  0  0  0  0  0  0  0  0  0
    2.2303  -51.3474   15.3364 C   0  0  0  0  0  0  0  0  0  0  0  0
    3.1857  -52.2438   16.0669 C   0  0  0  0  0  0  0  0  0  0  0  0
    2.9412  -52.5860   17.5067 C   0  0  0  0  0  0  0  0  0  0  0  0
    1.7413  -52.0319   18.2160 C   0  0  0  0  0  0  0  0  0  0  0  0
    0.7859  -51.1355   17.4855 C   0  0  0  0  0  0  0  0  0  0  0  0
    1.4968  -52.3742   19.6558 C   0  0  0  0  0  0  0  0  0  0  0  0
    0.9995  -51.3225   20.6027 C   0  0  0  0  0  0  0  0  0  0  0  0
    0.7550  -51.6648   22.0425 C   0  0  0  0  0  0  0  0  0  0  0  0
    1.0077  -53.0587   22.5354 N   0  0  0  0  0  0  0  0  0  0  0  0
    1.5050  -54.1105   21.5885 C   0  0  0  0  0  0  0  0  0  0  0  0
    1.7496  -53.7682   20.1487 N   0  0  0  0  0  0  0  0  0  0  0  0
    0.2577  -50.6130   22.9894 N   0  0  0  0  0  0  0  0  0  0  0  0
   -0.2790  -51.0072   24.3335 C   0  0  2  0  0  0  0  0  0  0  0  0
   -1.7581  -51.1500   24.5379 C   0  0  0  0  0  0  0  0  0  0  0  0
    0.6634  -51.2585   25.4731 C   0  0  0  0  0  0  0  0  0  0  0  0
    2.1332  -51.0151   25.2986 C   0  0  0  0  0  0  0  0  0  0  0  0
    3.0756  -51.2664   26.4382 C   0  0  0  0  0  0  0  0  0  0  0  0
    2.5482  -51.7611   27.7523 C   0  0  0  0  0  0  0  0  0  0  0  0
    1.0785  -52.0046   27.9269 C   0  0  0  0  0  0  0  0  0  0  0  0
    0.1361  -51.7533   26.7873 C   0  0  0  0  0  0  0  0  0  0  0  0
    0.0750  -49.8968   15.3151 C   0  0  0  0  0  0  0  0  0  0  0  0
   -2.9792  -51.6632   12.5220 N   0  3  2  0  0  0  0  0  0  0  0  0
   -3.4039  -51.1326   13.8591 C   0  0  0  0  0  0  0  0  0  0  0  0
   -2.3858  -50.5438   14.7902 C   0  0  0  0  0  0  0  0  0  0  0  0
   -0.9431  -50.4856   14.3841 N   0  3  1  0  0  0  0  0  0  0  0  0
   -0.5184  -51.0162   13.0469 C   0  0  0  0  0  0  0  0  0  0  0  0
   -1.5364  -51.6050   12.1159 C   0  0  0  0  0  0  0  0  0  0  0  0
   -4.7526  -51.3641   10.6470 C   0  0  0  0  0  0  0  0  0  0  0  0
   -3.9973  -52.2520   11.5909 C   0  0  0  0  0  0  0  0  0  0  0  0
    2.3985  -51.1120   14.3458 H   0  0  0  0  0  0  0  0  0  0  0  0
    4.0112  -52.6251   15.5789 H   0  0  0  0  0  0  0  0  0  0  0  0
    3.5985  -53.2027   18.0093 H   0  0  0  0  0  0  0  0  0  0  0  0
   -0.0397  -50.7543   17.9735 H   0  0  0  0  0  0  0  0  0  0  0  0
    0.8256  -50.3634   20.2636 H   0  0  0  0  0  0  0  0  0  0  0  0
    1.6788  -55.0696   21.9276 H   0  0  0  0  0  0  0  0  0  0  0  0
    0.2836  -49.6640   22.7287 H   0  0  0  0  0  0  0  0  0  0  0  0
   -0.0375  -51.8258   24.9789 H   0  0  0  0  0  0  0  0  0  0  0  0
   -2.2707  -50.4039   23.9673 H   0  0  0  0  0  0  0  0  0  0  0  0
   -1.9884  -51.0262   25.5755 H   0  0  0  0  0  0  0  0  0  0  0  0
   -2.0704  -52.1217   24.2167 H   0  0  0  0  0  0  0  0  0  0  0  0
    2.4961  -50.6747   24.3944 H   0  0  0  0  0  0  0  0  0  0  0  0
    4.0868  -51.0989   26.3181 H   0  0  0  0  0  0  0  0  0  0  0  0
    3.1966  -51.9339   28.5364 H   0  0  0  0  0  0  0  0  0  0  0  0
    0.7157  -52.3450   28.8311 H   0  0  0  0  0  0  0  0  0  0  0  0
   -0.8751  -51.9208   26.9074 H   0  0  0  0  0  0  0  0  0  0  0  0
   -0.4662  -49.3504   16.0590 H   0  0  0  0  0  0  0  0  0  0  0  0
    0.7123  -49.3388   14.6614 H   0  0  0  0  0  0  0  0  0  0  0  0
   -3.3380  -52.6083   12.3859 H   0  0  0  0  0  0  0  0  0  0  0  0
   -3.8666  -51.9442   14.3807 H   0  0  0  0  0  0  0  0  0  0  0  0
   -4.0200  -50.2949   13.6069 H   0  0  0  0  0  0  0  0  0  0  0  0
   -2.4292  -51.1130   15.6952 H   0  0  0  0  0  0  0  0  0  0  0  0
   -2.6681  -49.5131   14.8433 H   0  0  0  0  0  0  0  0  0  0  0  0
   -1.0198  -50.4947   15.4012 H   0  0  0  0  0  0  0  0  0  0  0  0
    0.2073  -51.7799   13.2339 H   0  0  0  0  0  0  0  0  0  0  0  0
   -0.1884  -50.1404   12.5283 H   0  0  0  0  0  0  0  0  0  0  0  0
   -1.2300  -52.6112   11.9195 H   0  0  0  0  0  0  0  0  0  0  0  0
   -1.5402  -50.9223   11.2920 H   0  0  0  0  0  0  0  0  0  0  0  0
   -5.4295  -51.9550   10.0660 H   0  0  0  0  0  0  0  0  0  0  0  0
   -4.0637  -50.8675    9.9961 H   0  0  0  0  0  0  0  0  0  0  0  0
   -5.3034  -50.6364   11.2055 H   0  0  0  0  0  0  0  0  0  0  0  0
   -3.4856  -52.9757   10.9915 H   0  0  0  0  0  0  0  0  0  0  0  0
   -4.7577  -52.6105   12.2529 H   0  0  0  0  0  0  0  0  0  0  0  0
  1  2  2  0  0  0  0
  2  3  1  0  0  0  0
  2 31  1  0  0  0  0
  3  4  2  0  0  0  0
  3 32  1  0  0  0  0
  4  5  1  0  0  0  0
  4 33  1  0  0  0  0
  5  7  1  0  0  0  0
  5  6  2  0  0  0  0
  6  1  1  0  0  0  0
  6 34  1  0  0  0  0
  7  8  2  0  0  0  0
  8  9  1  0  0  0  0
  8 35  1  0  0  0  0
  9 13  1  0  0  0  0
  9 10  2  0  0  0  0
 10 11  1  0  0  0  0
 11 12  2  0  0  0  0
 11 36  1  0  0  0  0
 12  7  1  0  0  0  0
 13 14  1  0  0  0  0
 13 37  1  0  0  0  0
 14 15  1  0  0  0  0
 14 16  1  0  0  0  0
 14 38  1  6  0  0  0
 15 39  1  0  0  0  0
 15 40  1  0  0  0  0
 15 41  1  0  0  0  0
 16 17  2  0  0  0  0
 17 18  1  0  0  0  0
 17 42  1  0  0  0  0
 18 19  2  0  0  0  0
 18 43  1  0  0  0  0
 19 20  1  0  0  0  0
 19 44  1  0  0  0  0
 20 21  2  0  0  0  0
 20 45  1  0  0  0  0
 21 16  1  0  0  0  0
 21 46  1  0  0  0  0
 22  1  1  0  0  0  0
 22 47  1  0  0  0  0
 22 48  1  0  0  0  0
 23 24  1  0  0  0  0
 23 49  1  1  0  0  0
 24 25  1  0  0  0  0
 24 50  1  0  0  0  0
 24 51  1  0  0  0  0
 25 26  1  0  0  0  0
 25 52  1  0  0  0  0
 25 53  1  0  0  0  0
 26 22  1  0  0  0  0
 26 27  1  0  0  0  0
 26 54  1  1  0  0  0
 27 28  1  0  0  0  0
 27 55  1  0  0  0  0
 27 56  1  0  0  0  0
 28 23  1  0  0  0  0
 28 57  1  0  0  0  0
 28 58  1  0  0  0  0
 29 30  1  0  0  0  0
 29 59  1  0  0  0  0
 29 60  1  0  0  0  0
 29 61  1  0  0  0  0
 30 23  1  0  0  0  0
 30 62  1  0  0  0  0
 30 63  1  0  0  0  0
M  CHG  2  23   1  26   1
M  END
>  <minimizedAffinity>
-10.21231

$$$$

 OpenBabel09092411003D

 63 66  0  0  0  0  0  0  0  0999 V2000
    0.6870  -52.5204   21.0309 C   0  0  0  0  0  0  0  0  0  0  0  0
    0.9611  -53.7451   21.8526 C   0  0  0  0  0  0  0  0  0  0  0  0
    1.1359  -53.6282   23.3377 C   0  0  0  0  0  0  0  0  0  0  0  0
    1.0366  -52.2866   24.0013 C   0  0  0  0  0  0  0  0  0  0  0  0
    0.7624  -51.0620   23.1797 C   0  0  0  0  0  0  0  0  0  0  0  0
    0.5876  -51.1789   21.6944 C   0  0  0  0  0  0  0  0  0  0  0  0
    1.2113  -52.1697   25.4865 C   0  0  0  0  0  0  0  0  0  0  0  0
    2.5388  -51.7651   26.0559 N   0  0  0  0  0  0  0  0  0  0  0  0
    2.7135  -51.6483   27.5411 C   0  0  0  0  0  0  0  0  0  0  0  0
    1.5608  -51.9359   28.4568 C   0  0  0  0  0  0  0  0  0  0  0  0
    0.2334  -52.3405   27.8874 N   0  0  0  0  0  0  0  0  0  0  0  0
    0.0587  -52.4574   26.4023 C   0  0  0  0  0  0  0  0  0  0  0  0
   -1.2688  -52.8619   25.8328 N   0  0  0  0  0  0  0  0  0  0  0  0
   -2.3724  -51.8531   25.7130 C   0  0  1  0  0  0  0  0  0  0  0  0
   -3.3098  -51.6271   26.8619 C   0  0  0  0  0  0  0  0  0  0  0  0
   -2.5385  -51.0702   24.4443 C   0  0  0  0  0  0  0  0  0  0  0  0
   -2.9838  -51.7610   23.1896 C   0  0  0  0  0  0  0  0  0  0  0  0
   -3.1498  -50.9782   21.9209 C   0  0  0  0  0  0  0  0  0  0  0  0
   -2.8706  -49.5045   21.9070 C   0  0  0  0  0  0  0  0  0  0  0  0
   -2.4252  -48.8136   23.1617 C   0  0  0  0  0  0  0  0  0  0  0  0
   -2.2592  -49.5965   24.4304 C   0  0  0  0  0  0  0  0  0  0  0  0
    0.5122  -52.6374   19.5457 C   0  0  0  0  0  0  0  0  0  0  0  0
   -1.3269  -49.2503   17.2229 N   0  3  1  0  0  0  0  0  0  0  0  0
    0.1630  -49.4228   17.2447 C   0  0  0  0  0  0  0  0  0  0  0  0
    0.7760  -50.5518   18.0190 C   0  0  0  0  0  0  0  0  0  0  0  0
   -0.1008  -51.5083   18.7715 N   0  3  1  0  0  0  0  0  0  0  0  0
   -1.5907  -51.3358   18.7497 C   0  0  0  0  0  0  0  0  0  0  0  0
   -2.2037  -50.2067   17.9754 C   0  0  0  0  0  0  0  0  0  0  0  0
   -2.3175  -46.8496   17.1489 C   0  0  0  0  0  0  0  0  0  0  0  0
   -1.9399  -48.1212   16.4487 C   0  0  0  0  0  0  0  0  0  0  0  0
    1.0294  -54.6681   21.3961 H   0  0  0  0  0  0  0  0  0  0  0  0
    1.3245  -54.4708   23.9030 H   0  0  0  0  0  0  0  0  0  0  0  0
    0.6940  -50.1390   23.6362 H   0  0  0  0  0  0  0  0  0  0  0  0
    0.3990  -50.3363   21.1291 H   0  0  0  0  0  0  0  0  0  0  0  0
    3.6268  -51.3701   27.9329 H   0  0  0  0  0  0  0  0  0  0  0  0
    1.6810  -51.8554   29.4786 H   0  0  0  0  0  0  0  0  0  0  0  0
   -1.4157  -53.7896   25.5376 H   0  0  0  0  0  0  0  0  0  0  0  0
   -2.8638  -52.4753   24.9945 H   0  0  0  0  0  0  0  0  0  0  0  0
   -2.8353  -51.0057   27.5924 H   0  0  0  0  0  0  0  0  0  0  0  0
   -3.5645  -52.5673   27.3047 H   0  0  0  0  0  0  0  0  0  0  0  0
   -4.1983  -51.1471   26.5082 H   0  0  0  0  0  0  0  0  0  0  0  0
   -3.1760  -52.7749   23.1992 H   0  0  0  0  0  0  0  0  0  0  0  0
   -3.4561  -51.4535   21.0576 H   0  0  0  0  0  0  0  0  0  0  0  0
   -2.9849  -48.9659   21.0342 H   0  0  0  0  0  0  0  0  0  0  0  0
   -2.2330  -47.7997   23.1521 H   0  0  0  0  0  0  0  0  0  0  0  0
   -1.9528  -49.1212   25.2937 H   0  0  0  0  0  0  0  0  0  0  0  0
    1.4851  -52.8031   19.1323 H   0  0  0  0  0  0  0  0  0  0  0  0
   -0.2060  -53.4240   19.4438 H   0  0  0  0  0  0  0  0  0  0  0  0
   -1.5251  -49.9376   16.4958 H   0  0  0  0  0  0  0  0  0  0  0  0
    0.5730  -48.5176   17.6416 H   0  0  0  0  0  0  0  0  0  0  0  0
    0.3974  -49.6652   16.2292 H   0  0  0  0  0  0  0  0  0  0  0  0
    1.4385  -50.1116   18.7347 H   0  0  0  0  0  0  0  0  0  0  0  0
    1.2114  -51.1644   17.2574 H   0  0  0  0  0  0  0  0  0  0  0  0
    0.3910  -50.9989   19.5057 H   0  0  0  0  0  0  0  0  0  0  0  0
   -1.9030  -51.2185   19.7664 H   0  0  0  0  0  0  0  0  0  0  0  0
   -1.9314  -52.2055   18.2277 H   0  0  0  0  0  0  0  0  0  0  0  0
   -2.7684  -49.6244   18.6732 H   0  0  0  0  0  0  0  0  0  0  0  0
   -2.7454  -50.7062   17.1995 H   0  0  0  0  0  0  0  0  0  0  0  0
   -2.7367  -46.1642   16.4422 H   0  0  0  0  0  0  0  0  0  0  0  0
   -1.4466  -46.4152   17.5937 H   0  0  0  0  0  0  0  0  0  0  0  0
   -3.0385  -47.0623   17.9103 H   0  0  0  0  0  0  0  0  0  0  0  0
   -1.2409  -47.8564   15.6831 H   0  0  0  0  0  0  0  0  0  0  0  0
   -2.8828  -48.5199   16.1375 H   0  0  0  0  0  0  0  0  0  0  0  0
  1  2  2  0  0  0  0
  2  3  1  0  0  0  0
  2 31  1  0  0  0  0
  3  4  2  0  0  0  0
  3 32  1  0  0  0  0
  4  7  1  0  0  0  0
  4  5  1  0  0  0  0
  5  6  2  0  0  0  0
  5 33  1  0  0  0  0
  6  1  1  0  0  0  0
  6 34  1  0  0  0  0
  7  8  2  0  0  0  0
  8  9  1  0  0  0  0
  9 10  2  0  0  0  0
  9 35  1  0  0  0  0
 10 11  1  0  0  0  0
 10 36  1  0  0  0  0
 11 12  2  0  0  0  0
 12 13  1  0  0  0  0
 12  7  1  0  0  0  0
 13 14  1  0  0  0  0
 13 37  1  0  0  0  0
 14 15  1  0  0  0  0
 14 16  1  0  0  0  0
 14 38  1  6  0  0  0
 15 39  1  0  0  0  0
 15 40  1  0  0  0  0
 15 41  1  0  0  0  0
 16 17  2  0  0  0  0
 17 18  1  0  0  0  0
 17 42  1  0  0  0  0
 18 19  2  0  0  0  0
 18 43  1  0  0  0  0
 19 20  1  0  0  0  0
 19 44  1  0  0  0  0
 20 21  2  0  0  0  0
 20 45  1  0  0  0  0
 21 16  1  0  0  0  0
 21 46  1  0  0  0  0
 22  1  1  0  0  0  0
 22 47  1  0  0  0  0
 22 48  1  0  0  0  0
 23 24  1  0  0  0  0
 23 49  1  6  0  0  0
 24 25  1  0  0  0  0
 24 50  1  0  0  0  0
 24 51  1  0  0  0  0
 25 26  1  0  0  0  0
 25 52  1  0  0  0  0
 25 53  1  0  0  0  0
 26 22  1  0  0  0  0
 26 27  1  0  0  0  0
 26 54  1  1  0  0  0
 27 28  1  0  0  0  0
 27 55  1  0  0  0  0
 27 56  1  0  0  0  0
 28 23  1  0  0  0  0
 28 57  1  0  0  0  0
 28 58  1  0  0  0  0
 29 30  1  0  0  0  0
 29 59  1  0  0  0  0
 29 60  1  0  0  0  0
 29 61  1  0  0  0  0
 30 23  1  0  0  0  0
 30 62  1  0  0  0  0
 30 63  1  0  0  0  0
M  CHG  2  23   1  26   1
M  END
>  <minimizedAffinity>
-9.30326

$$$$

 OpenBabel09092411003D

 56 58  0  0  0  0  0  0  0  0999 V2000
   -3.2898  -51.7685   25.5691 C   0  0  0  0  0  0  0  0  0  0  0  0
   -4.4306  -51.7461   24.5955 C   0  0  0  0  0  0  0  0  0  0  0  0
   -4.1630  -51.5656   23.1306 C   0  0  0  0  0  0  0  0  0  0  0  0
   -2.7545  -51.4076   22.6394 C   0  0  0  0  0  0  0  0  0  0  0  0
   -1.6138  -51.4300   23.6131 C   0  0  0  0  0  0  0  0  0  0  0  0
   -0.2053  -51.2719   23.1219 C   0  0  0  0  0  0  0  0  0  0  0  0
    0.9355  -51.2943   24.0956 N   0  0  0  0  0  0  0  0  0  0  0  0
    0.6679  -51.4748   25.5605 C   0  0  0  0  0  0  0  0  0  0  0  0
   -0.7406  -51.6328   26.0516 N   0  0  0  0  0  0  0  0  0  0  0  0
   -1.8814  -51.6104   25.0779 C   0  0  0  0  0  0  0  0  0  0  0  0
    0.0624  -51.0914   21.6571 N   0  0  0  0  0  0  0  0  0  0  0  0
    0.4981  -52.2607   20.8246 C   0  0  0  0  0  0  0  0  0  0  0  0
    0.7658  -52.0802   19.3598 C   0  0  0  0  0  0  0  0  0  0  0  0
    0.5977  -50.7305   18.7274 N   0  0  0  0  0  0  0  0  0  0  0  0
    0.8653  -50.5500   17.2625 C   0  0  0  0  0  0  0  0  0  0  0  0
    0.6972  -49.2002   16.6301 O   0  0  0  0  0  0  0  0  0  0  0  0
    1.3011  -51.7193   16.4301 N   0  0  0  0  0  0  0  0  0  0  0  0
    0.1619  -49.5612   19.5598 C   0  0  0  0  0  0  0  0  0  0  0  0
   -0.1057  -49.7416   21.0246 C   0  0  0  0  0  0  0  0  0  0  0  0
    1.5687  -51.5388   14.9652 C   0  0  0  0  0  0  0  0  0  0  0  0
    2.9738  -51.3423   14.4782 C   0  0  0  0  0  0  0  0  0  0  0  0
    0.4314  -51.5548   13.9875 C   0  0  0  0  0  0  0  0  0  0  0  0
    1.8087  -51.4972   26.5341 C   0  0  0  0  0  0  0  0  0  0  0  0
    3.1914  -51.1365   26.0778 C   0  0  0  0  0  0  0  0  0  0  0  0
    1.5669  -51.8801   27.9641 C   0  0  0  0  0  0  0  0  0  0  0  0
   -3.4612  -50.7761   27.9641 C   0  0  0  0  0  0  0  0  0  0  0  0
   -3.5575  -51.9489   27.0340 O   0  0  0  0  0  0  0  0  0  0  0  0
   -5.3996  -51.8549   24.9335 H   0  0  0  0  0  0  0  0  0  0  0  0
   -4.9479  -51.5501   22.4607 H   0  0  0  0  0  0  0  0  0  0  0  0
   -2.5703  -51.2835   21.6316 H   0  0  0  0  0  0  0  0  0  0  0  0
   -0.2680  -53.0028   20.9094 H   0  0  0  0  0  0  0  0  0  0  0  0
    1.4617  -52.5008   21.2230 H   0  0  0  0  0  0  0  0  0  0  0  0
    0.1100  -52.7481   18.8414 H   0  0  0  0  0  0  0  0  0  0  0  0
    1.8172  -52.2610   19.2778 H   0  0  0  0  0  0  0  0  0  0  0  0
    1.4115  -52.6052   16.8452 H   0  0  0  0  0  0  0  0  0  0  0  0
   -0.7427  -49.1917   19.1238 H   0  0  0  0  0  0  0  0  0  0  0  0
    1.0153  -48.9159   19.5433 H   0  0  0  0  0  0  0  0  0  0  0  0
   -1.1205  -49.4463   21.1919 H   0  0  0  0  0  0  0  0  0  0  0  0
    0.6600  -49.1555   21.4885 H   0  0  0  0  0  0  0  0  0  0  0  0
    0.8296  -51.5358   14.1915 H   0  0  0  0  0  0  0  0  0  0  0  0
    3.6454  -51.3584   15.3110 H   0  0  0  0  0  0  0  0  0  0  0  0
    3.0492  -50.3998   13.9774 H   0  0  0  0  0  0  0  0  0  0  0  0
    3.2291  -52.1286   13.7989 H   0  0  0  0  0  0  0  0  0  0  0  0
   -0.4895  -51.6953   14.5139 H   0  0  0  0  0  0  0  0  0  0  0  0
    0.5703  -52.3558   13.2918 H   0  0  0  0  0  0  0  0  0  0  0  0
    0.4020  -50.6247   13.4593 H   0  0  0  0  0  0  0  0  0  0  0  0
    1.8044  -52.4680   26.0842 H   0  0  0  0  0  0  0  0  0  0  0  0
    3.4364  -50.1543   26.4243 H   0  0  0  0  0  0  0  0  0  0  0  0
    3.2311  -51.1578   25.0087 H   0  0  0  0  0  0  0  0  0  0  0  0
    3.8929  -51.8401   26.4749 H   0  0  0  0  0  0  0  0  0  0  0  0
    1.5413  -50.9985   28.5700 H   0  0  0  0  0  0  0  0  0  0  0  0
    2.3552  -52.5209   28.2999 H   0  0  0  0  0  0  0  0  0  0  0  0
    0.6317  -52.3940   28.0425 H   0  0  0  0  0  0  0  0  0  0  0  0
   -3.6836  -51.0928   28.9617 H   0  0  0  0  0  0  0  0  0  0  0  0
   -4.1612  -50.0245   27.6641 H   0  0  0  0  0  0  0  0  0  0  0  0
   -2.4701  -50.3743   27.9301 H   0  0  0  0  0  0  0  0  0  0  0  0
  1  2  2  0  0  0  0
  2  3  1  0  0  0  0
  2 28  1  0  0  0  0
  3  4  2  0  0  0  0
  3 29  1  0  0  0  0
  4  5  1  0  0  0  0
  4 30  1  0  0  0  0
  5  6  2  0  0  0  0
  6 11  1  0  0  0  0
  6  7  1  0  0  0  0
  7  8  2  0  0  0  0
  8 23  1  0  0  0  0
  8  9  1  0  0  0  0
  9 10  2  0  0  0  0
 10  1  1  0  0  0  0
 10  5  1  0  0  0  0
 11 12  1  0  0  0  0
 12 13  1  0  0  0  0
 12 31  1  0  0  0  0
 12 32  1  0  0  0  0
 13 14  1  0  0  0  0
 13 33  1  0  0  0  0
 13 34  1  0  0  0  0
 14 15  1  0  0  0  0
 14 18  1  0  0  0  0
 15 16  2  0  0  0  0
 15 17  1  0  0  0  0
 17 20  1  0  0  0  0
 17 35  1  0  0  0  0
 18 19  1  0  0  0  0
 18 36  1  0  0  0  0
 18 37  1  0  0  0  0
 19 11  1  0  0  0  0
 19 38  1  0  0  0  0
 19 39  1  0  0  0  0
 20 21  1  0  0  0  0
 20 22  1  0  0  0  0
 20 40  1  0  0  0  0
 21 41  1  0  0  0  0
 21 42  1  0  0  0  0
 21 43  1  0  0  0  0
 22 44  1  0  0  0  0
 22 45  1  0  0  0  0
 22 46  1  0  0  0  0
 23 24  1  0  0  0  0
 23 25  1  0  0  0  0
 23 47  1  0  0  0  0
 24 48  1  0  0  0  0
 24 49  1  0  0  0  0
 24 50  1  0  0  0  0
 25 51  1  0  0  0  0
 25 52  1  0  0  0  0
 25 53  1  0  0  0  0
 26 27  1  0  0  0  0
 26 54  1  0  0  0  0
 26 55  1  0  0  0  0
 26 56  1  0  0  0  0
 27  1  1  0  0  0  0
M  END
>  <minimizedAffinity>
-7.81138

$$$$

 OpenBabel09092411003D

 57 59  0  0  0  0  0  0  0  0999 V2000
    0.0790  -49.1344   15.9301 C   0  0  0  0  0  0  0  0  0  0  0  0
   -0.4417  -47.7625   15.6190 O   0  0  0  0  0  0  0  0  0  0  0  0
    0.1663  -49.5984   17.3539 N   0  0  0  0  0  0  0  0  0  0  0  0
   -0.2671  -48.6905   18.4665 C   0  0  0  0  0  0  0  0  0  0  0  0
   -0.1798  -49.1546   19.8902 C   0  0  0  0  0  0  0  0  0  0  0  0
    0.3410  -50.5264   20.2014 C   0  0  1  0  0  0  0  0  0  0  0  0
    0.4283  -50.9904   21.6252 C   0  0  0  0  0  0  0  0  0  0  0  0
    0.9490  -52.3623   21.9363 N   0  0  0  0  0  0  0  0  0  0  0  0
    1.0363  -52.8263   23.3600 C   0  0  0  0  0  0  0  0  0  0  0  0
    1.5570  -54.1982   23.6712 O   0  0  0  0  0  0  0  0  0  0  0  0
    0.6029  -51.9185   24.4727 N   0  0  0  0  0  0  0  0  0  0  0  0
    1.3824  -53.2702   20.8236 C   0  0  0  0  0  0  0  0  0  0  0  0
    1.2951  -52.8062   19.3999 C   0  0  0  0  0  0  0  0  0  0  0  0
    0.7744  -51.4343   19.0888 C   0  0  1  0  0  0  0  0  0  0  0  0
    0.6870  -50.9703   17.6651 C   0  0  0  0  0  0  0  0  0  0  0  0
   -0.0314  -52.4355   11.8105 C   0  0  0  0  0  0  0  0  0  0  0  0
    0.4616  -51.5597   12.9240 C   0  0  0  0  0  0  0  0  0  0  0  0
    1.8971  -51.3191   13.2869 N   0  0  0  0  0  0  0  0  0  0  0  0
    1.9285  -50.3813   14.4572 C   0  0  0  0  0  0  0  0  0  0  0  0
    0.5124  -50.0423   14.8175 C   0  0  0  0  0  0  0  0  0  0  0  0
   -0.3941  -50.7705   13.8700 N   0  0  0  0  0  0  0  0  0  0  0  0
   -1.8932  -50.7188   13.8687 C   0  0  0  0  0  0  0  0  0  0  0  0
    0.6902  -52.3825   25.8964 C   0  0  0  0  0  0  0  0  0  0  0  0
    1.7545  -51.8341   26.8000 C   0  0  0  0  0  0  0  0  0  0  0  0
    1.5884  -51.9131   28.2887 C   0  0  0  0  0  0  0  0  0  0  0  0
    2.9849  -51.2066   26.2150 C   0  0  0  0  0  0  0  0  0  0  0  0
   -1.2926  -48.4457   18.2837 H   0  0  0  0  0  0  0  0  0  0  0  0
    0.4442  -47.8923   18.4239 H   0  0  0  0  0  0  0  0  0  0  0  0
   -1.1693  -49.1010   20.2937 H   0  0  0  0  0  0  0  0  0  0  0  0
    0.5602  -48.5086   20.3145 H   0  0  0  0  0  0  0  0  0  0  0  0
    1.2239  -50.0423   20.5633 H   0  0  0  0  0  0  0  0  0  0  0  0
   -0.5612  -50.9367   22.0288 H   0  0  0  0  0  0  0  0  0  0  0  0
    1.1683  -50.3444   22.0495 H   0  0  0  0  0  0  0  0  0  0  0  0
    0.2611  -51.0181   24.2685 H   0  0  0  0  0  0  0  0  0  0  0  0
    0.7858  -54.1554   20.8971 H   0  0  0  0  0  0  0  0  0  0  0  0
    2.4353  -53.3718   20.9850 H   0  0  0  0  0  0  0  0  0  0  0  0
    0.6626  -53.5003   18.8870 H   0  0  0  0  0  0  0  0  0  0  0  0
    2.3193  -52.7556   19.0945 H   0  0  0  0  0  0  0  0  0  0  0  0
    1.7377  -51.6347   19.5093 H   0  0  0  0  0  0  0  0  0  0  0  0
    0.0544  -51.6644   17.1523 H   0  0  0  0  0  0  0  0  0  0  0  0
    1.7112  -50.9197   17.3596 H   0  0  0  0  0  0  0  0  0  0  0  0
    0.8037  -52.8718   11.3035 H   0  0  0  0  0  0  0  0  0  0  0  0
   -0.6007  -51.8485   11.1204 H   0  0  0  0  0  0  0  0  0  0  0  0
   -0.6489  -53.2109   12.2133 H   0  0  0  0  0  0  0  0  0  0  0  0
    2.7756  -50.0309   14.9312 H   0  0  0  0  0  0  0  0  0  0  0  0
   -2.2286  -50.0757   14.6554 H   0  0  0  0  0  0  0  0  0  0  0  0
   -2.2842  -51.7030   14.0215 H   0  0  0  0  0  0  0  0  0  0  0  0
   -2.2362  -50.3407   12.9283 H   0  0  0  0  0  0  0  0  0  0  0  0
    0.8259  -53.4435   25.8677 H   0  0  0  0  0  0  0  0  0  0  0  0
   -0.2154  -52.0140   26.3311 H   0  0  0  0  0  0  0  0  0  0  0  0
    1.4990  -52.7658   26.3401 H   0  0  0  0  0  0  0  0  0  0  0  0
    1.8488  -50.9724   28.7271 H   0  0  0  0  0  0  0  0  0  0  0  0
    2.2275  -52.6775   28.6788 H   0  0  0  0  0  0  0  0  0  0  0  0
    0.5704  -52.1458   28.5222 H   0  0  0  0  0  0  0  0  0  0  0  0
    3.1862  -50.2824   26.7153 H   0  0  0  0  0  0  0  0  0  0  0  0
    2.8297  -51.0215   25.1726 H   0  0  0  0  0  0  0  0  0  0  0  0
    3.8165  -51.8683   26.3398 H   0  0  0  0  0  0  0  0  0  0  0  0
  1  2  2  0  0  0  0
  1  3  1  0  0  0  0
  3  4  1  0  0  0  0
  4  5  1  0  0  0  0
  4 27  1  0  0  0  0
  4 28  1  0  0  0  0
  5 29  1  0  0  0  0
  5 30  1  0  0  0  0
  6  5  1  0  0  0  0
  6  7  1  0  0  0  0
  6 31  1  1  0  0  0
  7  8  1  0  0  0  0
  7 32  1  0  0  0  0
  7 33  1  0  0  0  0
  8  9  1  0  0  0  0
  8 12  1  0  0  0  0
  9 10  2  0  0  0  0
  9 11  1  0  0  0  0
 11 23  1  0  0  0  0
 11 34  1  0  0  0  0
 12 13  1  0  0  0  0
 12 35  1  0  0  0  0
 12 36  1  0  0  0  0
 13 37  1  0  0  0  0
 13 38  1  0  0  0  0
 14 13  1  0  0  0  0
 14 15  1  0  0  0  0
 14  6  1  0  0  0  0
 14 39  1  1  0  0  0
 15  3  1  0  0  0  0
 15 40  1  0  0  0  0
 15 41  1  0  0  0  0
 16 17  1  0  0  0  0
 16 42  1  0  0  0  0
 16 43  1  0  0  0  0
 16 44  1  0  0  0  0
 17 18  2  0  0  0  0
 18 19  1  0  0  0  0
 19 20  2  0  0  0  0
 19 45  1  0  0  0  0
 20  1  1  0  0  0  0
 20 21  1  0  0  0  0
 21 22  1  0  0  0  0
 21 17  1  0  0  0  0
 22 46  1  0  0  0  0
 22 47  1  0  0  0  0
 22 48  1  0  0  0  0
 23 24  1  0  0  0  0
 23 49  1  0  0  0  0
 23 50  1  0  0  0  0
 24 25  1  0  0  0  0
 24 26  1  0  0  0  0
 24 51  1  0  0  0  0
 25 52  1  0  0  0  0
 25 53  1  0  0  0  0
 25 54  1  0  0  0  0
 26 55  1  0  0  0  0
 26 56  1  0  0  0  0
 26 57  1  0  0  0  0
M  END
>  <minimizedAffinity>
-7.79857

$$$$

 OpenBabel09092411003D

 60 62  0  0  0  0  0  0  0  0999 V2000
    0.9587  -50.8306   19.9653 C   0  0  0  0  0  0  0  0  0  0  0  0
    0.7793  -53.0557   26.1108 N   0  0  0  0  0  0  0  0  0  0  0  0
    0.6699  -52.0429   25.0099 C   0  0  0  0  0  0  0  0  0  0  0  0
    0.3065  -50.6232   25.3303 O   0  0  0  0  0  0  0  0  0  0  0  0
    0.9237  -52.4496   23.5886 N   0  0  0  0  0  0  0  0  0  0  0  0
    1.2871  -53.8692   23.2682 C   0  0  0  0  0  0  0  0  0  0  0  0
    1.5409  -54.2760   21.8469 C   0  0  0  0  0  0  0  0  0  0  0  0
    1.4315  -53.2631   20.7460 C   0  0  0  0  0  0  0  0  0  0  0  0
    1.0681  -51.8435   21.0663 C   0  0  1  0  0  0  0  0  0  0  0  0
    0.8143  -51.4367   22.4876 C   0  0  0  0  0  0  0  0  0  0  0  0
   -0.8269  -52.8653   28.1440 C   0  0  0  0  0  0  0  0  0  0  0  0
    0.5255  -52.6489   27.5322 C   0  0  0  0  0  0  0  0  0  0  0  0
    1.6239  -52.0258   28.3415 C   0  0  0  0  0  0  0  0  0  0  0  0
    0.4422  -51.2402   18.6180 N   0  0  0  0  0  0  0  0  0  0  0  0
   -1.0268  -51.4650   18.4146 C   0  0  0  0  0  0  0  0  0  0  0  0
    1.3947  -51.4250   17.4741 C   0  0  0  0  0  0  0  0  0  0  0  0
    2.6295  -52.2766   17.4837 N   0  0  0  0  0  0  0  0  0  0  0  0
    3.2776  -52.1686   16.1353 C   0  0  0  0  0  0  0  0  0  0  0  0
    4.5196  -52.7878   15.5662 C   0  0  0  0  0  0  0  0  0  0  0  0
    4.9274  -52.4887   14.1540 C   0  0  0  0  0  0  0  0  0  0  0  0
    4.0932  -51.5704   13.3110 C   0  0  0  0  0  0  0  0  0  0  0  0
    2.8511  -50.9512   13.8801 C   0  0  0  0  0  0  0  0  0  0  0  0
    2.4434  -51.2503   15.2922 C   0  0  0  0  0  0  0  0  0  0  0  0
    1.2797  -50.7908   16.1197 N   0  0  0  0  0  0  0  0  0  0  0  0
    0.1919  -49.8603   15.6713 C   0  0  0  0  0  0  0  0  0  0  0  0
    0.1342  -48.4605   16.2071 C   0  0  0  0  0  0  0  0  0  0  0  0
   -0.8382  -50.3296   14.6871 C   0  0  0  0  0  0  0  0  0  0  0  0
    1.9405  -50.4336   19.8121 H   0  0  0  0  0  0  0  0  0  0  0  0
    0.2067  -50.1587   20.3231 H   0  0  0  0  0  0  0  0  0  0  0  0
    1.0177  -53.9875   25.9005 H   0  0  0  0  0  0  0  0  0  0  0  0
    0.4860  -54.4815   23.6264 H   0  0  0  0  0  0  0  0  0  0  0  0
    2.2435  -53.9891   23.7328 H   0  0  0  0  0  0  0  0  0  0  0  0
    0.8442  -55.0557   21.6197 H   0  0  0  0  0  0  0  0  0  0  0  0
    2.5804  -54.5295   21.8455 H   0  0  0  0  0  0  0  0  0  0  0  0
    0.6899  -53.6257   20.0652 H   0  0  0  0  0  0  0  0  0  0  0  0
    2.4352  -53.1843   20.3837 H   0  0  0  0  0  0  0  0  0  0  0  0
    0.0298  -52.0583   20.9227 H   0  0  0  0  0  0  0  0  0  0  0  0
   -0.1815  -51.0470   22.5242 H   0  0  0  0  0  0  0  0  0  0  0  0
    1.6157  -50.7591   22.6963 H   0  0  0  0  0  0  0  0  0  0  0  0
   -0.8206  -52.5169   29.1557 H   0  0  0  0  0  0  0  0  0  0  0  0
   -1.0629  -53.9088   28.1276 H   0  0  0  0  0  0  0  0  0  0  0  0
   -1.5619  -52.3246   27.5851 H   0  0  0  0  0  0  0  0  0  0  0  0
    1.0878  -52.5035   28.4308 H   0  0  0  0  0  0  0  0  0  0  0  0
    2.1773  -51.3459   27.7280 H   0  0  0  0  0  0  0  0  0  0  0  0
    2.2774  -52.7912   28.7048 H   0  0  0  0  0  0  0  0  0  0  0  0
    1.2006  -51.4958   29.1690 H   0  0  0  0  0  0  0  0  0  0  0  0
   -1.5454  -51.2876   19.3336 H   0  0  0  0  0  0  0  0  0  0  0  0
   -1.1930  -52.4742   18.1003 H   0  0  0  0  0  0  0  0  0  0  0  0
   -1.3899  -50.7935   17.6648 H   0  0  0  0  0  0  0  0  0  0  0  0
    5.0936  -53.4196   16.1462 H   0  0  0  0  0  0  0  0  0  0  0  0
    5.7819  -52.9147   13.7624 H   0  0  0  0  0  0  0  0  0  0  0  0
    4.3738  -51.3646   12.3394 H   0  0  0  0  0  0  0  0  0  0  0  0
    2.2771  -50.3194   13.3001 H   0  0  0  0  0  0  0  0  0  0  0  0
    0.7295  -50.7850   15.7003 H   0  0  0  0  0  0  0  0  0  0  0  0
   -0.7018  -47.9486   15.7782 H   0  0  0  0  0  0  0  0  0  0  0  0
    1.0366  -47.9442   15.9540 H   0  0  0  0  0  0  0  0  0  0  0  0
    0.0267  -48.4901   17.2713 H   0  0  0  0  0  0  0  0  0  0  0  0
   -1.5279  -49.5363   14.4871 H   0  0  0  0  0  0  0  0  0  0  0  0
   -1.3657  -51.1665   15.0947 H   0  0  0  0  0  0  0  0  0  0  0  0
   -0.3558  -50.6207   13.7774 H   0  0  0  0  0  0  0  0  0  0  0  0
  1 14  1  0  0  0  0
  1 28  1  0  0  0  0
  1 29  1  0  0  0  0
  2  3  1  0  0  0  0
  2 30  1  0  0  0  0
  3  4  2  0  0  0  0
  3  5  1  0  0  0  0
  5  6  1  0  0  0  0
  6  7  1  0  0  0  0
  6 31  1  0  0  0  0
  6 32  1  0  0  0  0
  7  8  1  0  0  0  0
  7 33  1  0  0  0  0
  7 34  1  0  0  0  0
  8  9  1  0  0  0  0
  8 35  1  0  0  0  0
  8 36  1  0  0  0  0
  9  1  1  0  0  0  0
  9 10  1  0  0  0  0
  9 37  1  6  0  0  0
 10  5  1  0  0  0  0
 10 38  1  0  0  0  0
 10 39  1  0  0  0  0
 11 12  1  0  0  0  0
 11 40  1  0  0  0  0
 11 41  1  0  0  0  0
 11 42  1  0  0  0  0
 12 13  1  0  0  0  0
 12  2  1  0  0  0  0
 12 43  1  0  0  0  0
 13 44  1  0  0  0  0
 13 45  1  0  0  0  0
 13 46  1  0  0  0  0
 14 15  1  0  0  0  0
 14 16  1  0  0  0  0
 15 47  1  0  0  0  0
 15 48  1  0  0  0  0
 15 49  1  0  0  0  0
 16 17  2  0  0  0  0
 17 18  1  0  0  0  0
 18 19  2  0  0  0  0
 19 20  1  0  0  0  0
 19 50  1  0  0  0  0
 20 21  2  0  0  0  0
 20 51  1  0  0  0  0
 21 22  1  0  0  0  0
 21 52  1  0  0  0  0
 22 23  2  0  0  0  0
 22 53  1  0  0  0  0
 23 24  1  0  0  0  0
 23 18  1  0  0  0  0
 24 25  1  0  0  0  0
 24 16  1  0  0  0  0
 25 26  1  0  0  0  0
 25 27  1  0  0  0  0
 25 54  1  0  0  0  0
 26 55  1  0  0  0  0
 26 56  1  0  0  0  0
 26 57  1  0  0  0  0
 27 58  1  0  0  0  0
 27 59  1  0  0  0  0
 27 60  1  0  0  0  0
M  END
>  <minimizedAffinity>
-7.88332

$$$$

 OpenBabel09092411003D

 60 62  0  0  0  0  0  0  0  0999 V2000
    0.5047  -50.8639   17.5014 N   0  3  2  0  0  0  0  0  0  0  0  0
    0.4304  -49.6148   18.3286 C   0  0  0  0  0  0  0  0  0  0  0  0
    0.6402  -49.6842   19.8122 C   0  0  0  0  0  0  0  0  0  0  0  0
    0.9243  -51.0027   20.4687 N   0  3  1  0  0  0  0  0  0  0  0  0
    0.9986  -52.2518   19.6415 C   0  0  2  0  0  0  0  0  0  0  0  0
    1.2827  -53.5703   20.2978 C   0  0  0  0  0  0  0  0  0  0  0  0
    0.7888  -52.1824   18.1578 C   0  0  0  0  0  0  0  0  0  0  0  0
    0.2949  -50.7944   16.0177 C   0  0  0  0  0  0  0  0  0  0  0  0
    1.7208  -51.2040   15.7968 C   0  0  0  0  0  0  0  0  0  0  0  0
   -1.1311  -50.3848   16.2386 C   0  0  0  0  0  0  0  0  0  0  0  0
    0.3088  -51.7956   12.1775 C   0  0  0  0  0  0  0  0  0  0  0  0
    0.5187  -51.8651   13.6611 N   0  0  0  0  0  0  0  0  0  0  0  0
    0.0850  -50.7250   14.5341 C   0  0  0  0  0  0  0  0  0  0  0  0
   -0.5585  -49.5154   13.9236 O   0  0  0  0  0  0  0  0  0  0  0  0
    1.1341  -51.0721   21.9523 C   0  0  0  0  0  0  0  0  0  0  0  0
   -0.0428  -51.2225   22.8700 C   0  0  0  0  0  0  0  0  0  0  0  0
   -1.4758  -51.3644   22.4501 N   0  0  0  0  0  0  0  0  0  0  0  0
   -2.3121  -51.4869   23.6893 C   0  0  0  0  0  0  0  0  0  0  0  0
   -3.7894  -51.6502   23.8911 C   0  0  0  0  0  0  0  0  0  0  0  0
   -4.3506  -51.7473   25.2787 C   0  0  0  0  0  0  0  0  0  0  0  0
   -3.4344  -51.6811   26.4646 C   0  0  0  0  0  0  0  0  0  0  0  0
   -1.9571  -51.5178   26.2628 C   0  0  0  0  0  0  0  0  0  0  0  0
   -1.3959  -51.4207   24.8751 C   0  0  0  0  0  0  0  0  0  0  0  0
    0.0065  -51.2573   24.3688 N   0  0  0  0  0  0  0  0  0  0  0  0
    1.2416  -51.1479   25.2130 C   0  0  0  0  0  0  0  0  0  0  0  0
   -1.0409  -51.4516   27.4486 O   0  0  0  0  0  0  0  0  0  0  0  0
   -0.4553  -52.7109   28.0152 C   0  0  0  0  0  0  0  0  0  0  0  0
    0.4097  -51.8031   17.8878 H   0  0  0  0  0  0  0  0  0  0  0  0
   -0.5432  -49.1990   18.1734 H   0  0  0  0  0  0  0  0  0  0  0  0
    1.2690  -49.0440   17.9881 H   0  0  0  0  0  0  0  0  0  0  0  0
   -0.2470  -49.2970   20.2681 H   0  0  0  0  0  0  0  0  0  0  0  0
    1.5476  -49.1362   19.9581 H   0  0  0  0  0  0  0  0  0  0  0  0
    0.6791  -50.3424   21.2064 H   0  0  0  0  0  0  0  0  0  0  0  0
    0.8614  -51.8855   20.6374 H   0  0  0  0  0  0  0  0  0  0  0  0
    1.4957  -54.3033   19.5480 H   0  0  0  0  0  0  0  0  0  0  0  0
    0.4290  -53.8778   20.8648 H   0  0  0  0  0  0  0  0  0  0  0  0
    2.1260  -53.4703   20.9487 H   0  0  0  0  0  0  0  0  0  0  0  0
   -0.0372  -52.8241   17.9323 H   0  0  0  0  0  0  0  0  0  0  0  0
    1.7449  -52.4536   17.7613 H   0  0  0  0  0  0  0  0  0  0  0  0
    1.9187  -51.2546   14.7465 H   0  0  0  0  0  0  0  0  0  0  0  0
    1.8885  -52.1642   16.2381 H   0  0  0  0  0  0  0  0  0  0  0  0
    2.3724  -50.4853   16.2483 H   0  0  0  0  0  0  0  0  0  0  0  0
   -1.6113  -50.2407   15.2933 H   0  0  0  0  0  0  0  0  0  0  0  0
   -1.1577  -49.4713   16.7951 H   0  0  0  0  0  0  0  0  0  0  0  0
   -1.6415  -51.1503   16.7849 H   0  0  0  0  0  0  0  0  0  0  0  0
    0.6772  -52.6914   11.7228 H   0  0  0  0  0  0  0  0  0  0  0  0
    0.8353  -50.9523   11.7819 H   0  0  0  0  0  0  0  0  0  0  0  0
   -0.7358  -51.6935   11.9695 H   0  0  0  0  0  0  0  0  0  0  0  0
    0.9411  -52.6590   14.0619 H   0  0  0  0  0  0  0  0  0  0  0  0
    1.6337  -50.1695   22.2361 H   0  0  0  0  0  0  0  0  0  0  0  0
    1.6666  -51.9910   22.0826 H   0  0  0  0  0  0  0  0  0  0  0  0
   -4.4197  -51.6957   23.0752 H   0  0  0  0  0  0  0  0  0  0  0  0
   -5.3670  -51.8596   25.4175 H   0  0  0  0  0  0  0  0  0  0  0  0
   -3.8205  -51.7479   27.4193 H   0  0  0  0  0  0  0  0  0  0  0  0
    0.9729  -51.2043   26.2472 H   0  0  0  0  0  0  0  0  0  0  0  0
    1.7237  -50.2123   25.0202 H   0  0  0  0  0  0  0  0  0  0  0  0
    1.9092  -51.9491   24.9738 H   0  0  0  0  0  0  0  0  0  0  0  0
    0.1681  -52.4699   28.8508 H   0  0  0  0  0  0  0  0  0  0  0  0
    0.1283  -53.2020   27.2648 H   0  0  0  0  0  0  0  0  0  0  0  0
   -1.2445  -53.3592   28.3342 H   0  0  0  0  0  0  0  0  0  0  0  0
  1  2  1  0  0  0  0
  1 28  1  1  0  0  0
  2  3  1  0  0  0  0
  2 29  1  0  0  0  0
  2 30  1  0  0  0  0
  3  4  1  0  0  0  0
  3 31  1  0  0  0  0
  3 32  1  0  0  0  0
  4 15  1  0  0  0  0
  4  5  1  0  0  0  0
  4 33  1  1  0  0  0
  5  6  1  0  0  0  0
  5  7  1  0  0  0  0
  5 34  1  1  0  0  0
  6 35  1  0  0  0  0
  6 36  1  0  0  0  0
  6 37  1  0  0  0  0
  7  1  1  0  0  0  0
  7 38  1  0  0  0  0
  7 39  1  0  0  0  0
  8  9  1  0  0  0  0
  8 10  1  0  0  0  0
  8  1  1  0  0  0  0
  9 40  1  0  0  0  0
  9 41  1  0  0  0  0
  9 42  1  0  0  0  0
 10 43  1  0  0  0  0
 10 44  1  0  0  0  0
 10 45  1  0  0  0  0
 11 12  1  0  0  0  0
 11 46  1  0  0  0  0
 11 47  1  0  0  0  0
 11 48  1  0  0  0  0
 12 13  1  0  0  0  0
 12 49  1  0  0  0  0
 13 14  2  0  0  0  0
 13  8  1  0  0  0  0
 15 16  1  0  0  0  0
 15 50  1  0  0  0  0
 15 51  1  0  0  0  0
 16 17  2  0  0  0  0
 17 18  1  0  0  0  0
 18 19  2  0  0  0  0
 19 20  1  0  0  0  0
 19 52  1  0  0  0  0
 20 21  2  0  0  0  0
 20 53  1  0  0  0  0
 21 22  1  0  0  0  0
 21 54  1  0  0  0  0
 22 26  1  0  0  0  0
 22 23  2  0  0  0  0
 23 24  1  0  0  0  0
 23 18  1  0  0  0  0
 24 25  1  0  0  0  0
 24 16  1  0  0  0  0
 25 55  1  0  0  0  0
 25 56  1  0  0  0  0
 25 57  1  0  0  0  0
 26 27  1  0  0  0  0
 27 58  1  0  0  0  0
 27 59  1  0  0  0  0
 27 60  1  0  0  0  0
M  CHG  2   1   1   4   1
M  END
>  <minimizedAffinity>
-8.36942

$$$$

 OpenBabel09092411003D

 56 57  0  0  0  0  0  0  0  0999 V2000
   -1.3445  -50.1551   19.0301 N   0  0  0  0  0  0  0  0  0  0  0  0
   -2.4141  -50.5599   18.0595 C   0  0  0  0  0  0  0  0  0  0  0  0
   -1.5954  -50.2513   20.5058 C   0  0  0  0  0  0  0  0  0  0  0  0
   -2.9160  -50.7522   21.0109 O   0  0  0  0  0  0  0  0  0  0  0  0
   -0.5258  -49.8465   21.4764 N   0  0  0  0  0  0  0  0  0  0  0  0
   -0.7768  -49.9428   22.9522 C   0  0  0  0  0  0  0  0  0  0  0  0
   -1.7330  -48.9952   23.6136 C   0  0  0  0  0  0  0  0  0  0  0  0
   -1.9840  -49.0914   25.0893 C   0  0  0  0  0  0  0  0  0  0  0  0
   -1.2787  -50.1352   25.9035 C   0  0  0  0  0  0  0  0  0  0  0  0
   -0.3224  -51.0828   25.2421 C   0  0  0  0  0  0  0  0  0  0  0  0
   -0.0715  -50.9866   23.7664 C   0  0  0  0  0  0  0  0  0  0  0  0
    0.8848  -51.9342   23.1048 C   0  0  0  0  0  0  0  0  0  0  0  0
    0.3829  -52.1267   26.0563 O   0  0  0  0  0  0  0  0  0  0  0  0
    1.6013  -51.7612   26.8510 C   0  0  0  0  0  0  0  0  0  0  0  0
    1.6122  -51.9539   28.3386 C   0  0  0  0  0  0  0  0  0  0  0  0
    2.8091  -51.2030   26.1583 C   0  0  0  0  0  0  0  0  0  0  0  0
   -0.0239  -49.6542   18.5249 C   0  0  0  0  0  0  0  0  0  0  0  0
    1.5577  -51.7116   17.8844 N   0  3  1  0  0  0  0  0  0  0  0  0
    2.1897  -52.2097   16.6185 C   0  0  0  0  0  0  0  0  0  0  0  0
    1.7923  -51.2843   15.5067 C   0  0  0  0  0  0  0  0  0  0  0  0
    0.9147  -50.2144   16.0856 C   0  0  0  0  0  0  0  0  0  0  0  0
    0.7697  -50.4785   17.5551 C   0  0  2  0  0  0  0  0  0  0  0  0
    0.6357  -53.2804   19.7389 C   0  0  0  0  0  0  0  0  0  0  0  0
    1.6904  -52.3369   19.2413 C   0  0  0  0  0  0  0  0  0  0  0  0
   -2.0582  -50.4243   17.0596 H   0  0  0  0  0  0  0  0  0  0  0  0
   -3.2832  -49.9552   18.2139 H   0  0  0  0  0  0  0  0  0  0  0  0
   -2.6638  -51.5890   18.2127 H   0  0  0  0  0  0  0  0  0  0  0  0
    0.3409  -49.5176   21.1449 H   0  0  0  0  0  0  0  0  0  0  0  0
   -2.2182  -48.2770   23.0534 H   0  0  0  0  0  0  0  0  0  0  0  0
   -2.6419  -48.4395   25.5444 H   0  0  0  0  0  0  0  0  0  0  0  0
   -1.4514  -50.2014   26.9188 H   0  0  0  0  0  0  0  0  0  0  0  0
    1.2886  -52.6022   23.8366 H   0  0  0  0  0  0  0  0  0  0  0  0
    1.6795  -51.3799   22.6508 H   0  0  0  0  0  0  0  0  0  0  0  0
    0.3684  -52.4964   22.3550 H   0  0  0  0  0  0  0  0  0  0  0  0
    0.7411  -51.4943   26.2733 H   0  0  0  0  0  0  0  0  0  0  0  0
    2.5995  -52.2162   28.6570 H   0  0  0  0  0  0  0  0  0  0  0  0
    0.9326  -52.7374   28.6017 H   0  0  0  0  0  0  0  0  0  0  0  0
    1.3123  -51.0456   28.8181 H   0  0  0  0  0  0  0  0  0  0  0  0
    3.6876  -51.4548   26.7148 H   0  0  0  0  0  0  0  0  0  0  0  0
    2.7220  -50.1386   26.0917 H   0  0  0  0  0  0  0  0  0  0  0  0
    2.8792  -51.6174   25.1743 H   0  0  0  0  0  0  0  0  0  0  0  0
   -0.2114  -48.7139   18.0499 H   0  0  0  0  0  0  0  0  0  0  0  0
    0.5889  -49.6487   19.4020 H   0  0  0  0  0  0  0  0  0  0  0  0
    1.6480  -52.1365   18.8073 H   0  0  0  0  0  0  0  0  0  0  0  0
    1.8460  -53.2006   16.4065 H   0  0  0  0  0  0  0  0  0  0  0  0
    3.2547  -52.2339   16.7192 H   0  0  0  0  0  0  0  0  0  0  0  0
    1.2562  -51.8272   14.7565 H   0  0  0  0  0  0  0  0  0  0  0  0
    2.6603  -50.8499   15.0565 H   0  0  0  0  0  0  0  0  0  0  0  0
   -0.0463  -50.2393   15.6156 H   0  0  0  0  0  0  0  0  0  0  0  0
    1.3478  -49.2497   15.9223 H   0  0  0  0  0  0  0  0  0  0  0  0
    0.2034  -49.8906   18.2469 H   0  0  0  0  0  0  0  0  0  0  0  0
    0.8976  -53.6240   20.7178 H   0  0  0  0  0  0  0  0  0  0  0  0
    0.5631  -54.1164   19.0751 H   0  0  0  0  0  0  0  0  0  0  0  0
   -0.3059  -52.7738   19.7788 H   0  0  0  0  0  0  0  0  0  0  0  0
    2.6140  -52.8772   19.2434 H   0  0  0  0  0  0  0  0  0  0  0  0
    1.6071  -51.5024   19.9058 H   0  0  0  0  0  0  0  0  0  0  0  0
  1  2  1  0  0  0  0
  1  3  1  0  0  0  0
  2 25  1  0  0  0  0
  2 26  1  0  0  0  0
  2 27  1  0  0  0  0
  3  4  2  0  0  0  0
  3  5  1  0  0  0  0
  5  6  1  0  0  0  0
  5 28  1  0  0  0  0
  6  7  2  0  0  0  0
  7  8  1  0  0  0  0
  7 29  1  0  0  0  0
  8  9  2  0  0  0  0
  8 30  1  0  0  0  0
  9 10  1  0  0  0  0
  9 31  1  0  0  0  0
 10 13  1  0  0  0  0
 10 11  2  0  0  0  0
 11 12  1  0  0  0  0
 11  6  1  0  0  0  0
 12 32  1  0  0  0  0
 12 33  1  0  0  0  0
 12 34  1  0  0  0  0
 13 14  1  0  0  0  0
 14 15  1  0  0  0  0
 14 16  1  0  0  0  0
 14 35  1  0  0  0  0
 15 36  1  0  0  0  0
 15 37  1  0  0  0  0
 15 38  1  0  0  0  0
 16 39  1  0  0  0  0
 16 40  1  0  0  0  0
 16 41  1  0  0  0  0
 17  1  1  0  0  0  0
 17 42  1  0  0  0  0
 17 43  1  0  0  0  0
 18 19  1  0  0  0  0
 18 44  1  1  0  0  0
 19 20  1  0  0  0  0
 19 45  1  0  0  0  0
 19 46  1  0  0  0  0
 20 21  1  0  0  0  0
 20 47  1  0  0  0  0
 20 48  1  0  0  0  0
 21 22  1  0  0  0  0
 21 49  1  0  0  0  0
 21 50  1  0  0  0  0
 22 17  1  0  0  0  0
 22 18  1  0  0  0  0
 22 51  1  6  0  0  0
 23 24  1  0  0  0  0
 23 52  1  0  0  0  0
 23 53  1  0  0  0  0
 23 54  1  0  0  0  0
 24 18  1  0  0  0  0
 24 55  1  0  0  0  0
 24 56  1  0  0  0  0
M  CHG  1  18   1
M  END
>  <minimizedAffinity>
-7.08573

$$$$

 OpenBabel09092411003D

 59 60  0  0  0  0  0  0  0  0999 V2000
    0.9158  -52.6460   22.8719 N   0  3  1  0  0  0  0  0  0  0  0  0
    1.1560  -54.0471   23.3508 C   0  0  0  0  0  0  0  0  0  0  0  0
    3.4534  -52.3183   16.4766 N   0  0  0  0  0  0  0  0  0  0  0  0
    2.0401  -51.8816   16.7252 C   0  0  0  0  0  0  0  0  0  0  0  0
    1.1987  -51.3815   15.5886 O   0  0  0  0  0  0  0  0  0  0  0  0
    1.4682  -51.9450   18.1104 N   0  0  0  0  0  0  0  0  0  0  0  0
    0.0471  -51.4852   18.2496 C   0  0  0  0  0  0  0  0  0  0  0  0
   -0.8000  -51.4266   19.4860 C   0  0  0  0  0  0  0  0  0  0  0  0
   -0.4355  -51.8134   20.8887 C   0  0  0  0  0  0  0  0  0  0  0  0
    0.8662  -52.3543   21.4014 C   0  0  1  0  0  0  0  0  0  0  0  0
    2.1250  -52.6419   20.6380 C   0  0  0  0  0  0  0  0  0  0  0  0
    2.3929  -52.4598   19.1735 C   0  0  0  0  0  0  0  0  0  0  0  0
    5.3323  -52.9257   14.7881 C   0  0  0  0  0  0  0  0  0  0  0  0
    4.0253  -52.2549   15.0913 C   0  0  0  0  0  0  0  0  0  0  0  0
    0.7251  -51.5368   23.8634 C   0  0  0  0  0  0  0  0  0  0  0  0
    0.8214  -51.8199   25.3334 C   0  0  0  0  0  0  0  0  0  0  0  0
    2.0110  -51.3427   26.1127 C   0  0  0  0  0  0  0  0  0  0  0  0
    2.1074  -51.6258   27.5825 C   0  0  0  0  0  0  0  0  0  0  0  0
    1.0142  -52.3861   28.2731 C   0  0  0  0  0  0  0  0  0  0  0  0
   -0.1754  -52.8632   27.4938 C   0  0  0  0  0  0  0  0  0  0  0  0
   -0.2717  -52.5802   26.0240 C   0  0  0  0  0  0  0  0  0  0  0  0
   -1.4612  -53.0573   25.2446 O   0  0  0  0  0  0  0  0  0  0  0  0
   -2.6222  -52.1369   25.0098 C   0  0  0  0  0  0  0  0  0  0  0  0
   -3.0170  -51.7697   23.6100 C   0  0  0  0  0  0  0  0  0  0  0  0
   -3.3884  -51.5837   26.1747 C   0  0  0  0  0  0  0  0  0  0  0  0
    1.5954  -52.0771   23.3768 H   0  0  0  0  0  0  0  0  0  0  0  0
    0.4749  -54.7125   22.8627 H   0  0  0  0  0  0  0  0  0  0  0  0
    1.0034  -54.0935   24.4088 H   0  0  0  0  0  0  0  0  0  0  0  0
    2.1610  -54.3347   23.1225 H   0  0  0  0  0  0  0  0  0  0  0  0
    4.0057  -52.6465   17.2226 H   0  0  0  0  0  0  0  0  0  0  0  0
   -0.5035  -52.1089   17.5767 H   0  0  0  0  0  0  0  0  0  0  0  0
    0.2101  -50.4353   18.1228 H   0  0  0  0  0  0  0  0  0  0  0  0
   -1.6534  -52.0292   19.2550 H   0  0  0  0  0  0  0  0  0  0  0  0
   -0.8125  -50.3646   19.6158 H   0  0  0  0  0  0  0  0  0  0  0  0
   -1.1587  -52.5543   21.1589 H   0  0  0  0  0  0  0  0  0  0  0  0
   -0.3725  -50.8316   21.3094 H   0  0  0  0  0  0  0  0  0  0  0  0
    0.8304  -52.1472   20.3523 H   0  0  0  0  0  0  0  0  0  0  0  0
    2.3170  -53.6789   20.8187 H   0  0  0  0  0  0  0  0  0  0  0  0
    2.7190  -51.8319   21.0067 H   0  0  0  0  0  0  0  0  0  0  0  0
    2.6806  -53.4317   18.8308 H   0  0  0  0  0  0  0  0  0  0  0  0
    3.0425  -51.6121   19.2384 H   0  0  0  0  0  0  0  0  0  0  0  0
    5.5797  -52.7755   13.7580 H   0  0  0  0  0  0  0  0  0  0  0  0
    5.2495  -53.9740   14.9859 H   0  0  0  0  0  0  0  0  0  0  0  0
    6.0999  -52.5061   15.4042 H   0  0  0  0  0  0  0  0  0  0  0  0
    3.2974  -52.6865   14.4365 H   0  0  0  0  0  0  0  0  0  0  0  0
    4.2467  -51.2158   14.9639 H   0  0  0  0  0  0  0  0  0  0  0  0
   -0.2500  -51.1318   23.6901 H   0  0  0  0  0  0  0  0  0  0  0  0
    1.5631  -50.8970   23.6808 H   0  0  0  0  0  0  0  0  0  0  0  0
    2.7631  -50.8196   25.6376 H   0  0  0  0  0  0  0  0  0  0  0  0
    2.9258  -51.2975   28.1186 H   0  0  0  0  0  0  0  0  0  0  0  0
    1.0805  -52.5809   29.2844 H   0  0  0  0  0  0  0  0  0  0  0  0
   -0.9276  -53.3862   27.9690 H   0  0  0  0  0  0  0  0  0  0  0  0
   -2.3694  -52.3291   26.0316 H   0  0  0  0  0  0  0  0  0  0  0  0
   -2.7522  -52.5647   22.9446 H   0  0  0  0  0  0  0  0  0  0  0  0
   -2.5066  -50.8756   23.3184 H   0  0  0  0  0  0  0  0  0  0  0  0
   -4.0737  -51.6069   23.5685 H   0  0  0  0  0  0  0  0  0  0  0  0
   -4.2005  -50.9864   25.8161 H   0  0  0  0  0  0  0  0  0  0  0  0
   -2.7394  -50.9803   26.7743 H   0  0  0  0  0  0  0  0  0  0  0  0
   -3.7719  -52.3899   26.7646 H   0  0  0  0  0  0  0  0  0  0  0  0
  1  2  1  0  0  0  0
  1 15  1  0  0  0  0
  1 26  1  1  0  0  0
  2 27  1  0  0  0  0
  2 28  1  0  0  0  0
  2 29  1  0  0  0  0
  3  4  1  0  0  0  0
  3 30  1  0  0  0  0
  4  5  2  0  0  0  0
  4  6  1  0  0  0  0
  6  7  1  0  0  0  0
  7  8  1  0  0  0  0
  7 31  1  0  0  0  0
  7 32  1  0  0  0  0
  8  9  1  0  0  0  0
  8 33  1  0  0  0  0
  8 34  1  0  0  0  0
  9 10  1  0  0  0  0
  9 35  1  0  0  0  0
  9 36  1  0  0  0  0
 10  1  1  0  0  0  0
 10 11  1  0  0  0  0
 10 37  1  6  0  0  0
 11 12  1  0  0  0  0
 11 38  1  0  0  0  0
 11 39  1  0  0  0  0
 12  6  1  0  0  0  0
 12 40  1  0  0  0  0
 12 41  1  0  0  0  0
 13 14  1  0  0  0  0
 13 42  1  0  0  0  0
 13 43  1  0  0  0  0
 13 44  1  0  0  0  0
 14  3  1  0  0  0  0
 14 45  1  0  0  0  0
 14 46  1  0  0  0  0
 15 16  1  0  0  0  0
 15 47  1  0  0  0  0
 15 48  1  0  0  0  0
 16 17  2  0  0  0  0
 17 18  1  0  0  0  0
 17 49  1  0  0  0  0
 18 19  2  0  0  0  0
 18 50  1  0  0  0  0
 19 20  1  0  0  0  0
 19 51  1  0  0  0  0
 20 21  2  0  0  0  0
 20 52  1  0  0  0  0
 21 22  1  0  0  0  0
 21 16  1  0  0  0  0
 22 23  1  0  0  0  0
 23 24  1  0  0  0  0
 23 25  1  0  0  0  0
 23 53  1  0  0  0  0
 24 54  1  0  0  0  0
 24 55  1  0  0  0  0
 24 56  1  0  0  0  0
 25 57  1  0  0  0  0
 25 58  1  0  0  0  0
 25 59  1  0  0  0  0
M  CHG  1   1   1
M  END
>  <minimizedAffinity>
-8.58390

$$$$

 OpenBabel09092411003D

 56 57  0  0  0  0  0  0  0  0999 V2000
   -1.1360  -50.7245   18.7646 N   0  0  0  0  0  0  0  0  0  0  0  0
   -2.5845  -51.0893   18.6275 N   0  0  0  0  0  0  0  0  0  0  0  0
   -3.2729  -50.7458   19.9151 C   0  0  0  0  0  0  0  0  0  0  0  0
   -2.2499  -50.1687   20.8481 C   0  0  0  0  0  0  0  0  0  0  0  0
   -0.9292  -50.1555   20.1371 C   0  0  0  0  0  0  0  0  0  0  0  0
    0.3701  -49.6603   20.6997 C   0  0  0  0  0  0  0  0  0  0  0  0
    0.9808  -51.9455   17.8823 C   0  0  0  0  0  0  0  0  0  0  0  0
    2.0370  -52.1190   16.8315 C   0  0  0  0  0  0  0  0  0  0  0  0
    2.0328  -51.2453   15.6123 C   0  0  0  0  0  0  0  0  0  0  0  0
    0.9724  -50.1979   15.4438 C   0  0  0  0  0  0  0  0  0  0  0  0
   -0.0839  -50.0243   16.4946 C   0  0  0  0  0  0  0  0  0  0  0  0
   -0.0797  -50.8981   17.7138 C   0  0  0  0  0  0  0  0  0  0  0  0
    2.2250  -52.9342   19.9375 C   0  0  0  0  0  0  0  0  0  0  0  0
    0.9850  -52.8192   19.1015 O   0  0  0  0  0  0  0  0  0  0  0  0
   -2.5031  -49.6890   22.2466 N   0  0  0  0  0  0  0  0  0  0  0  0
   -2.1997  -50.5827   23.4125 C   0  0  0  0  0  0  0  0  0  0  0  0
   -1.6431  -51.9561   23.1799 O   0  0  0  0  0  0  0  0  0  0  0  0
   -2.4530  -50.1030   24.8110 N   0  0  0  0  0  0  0  0  0  0  0  0
   -3.0096  -48.7297   25.0436 C   0  0  0  0  0  0  0  0  0  0  0  0
   -4.4941  -48.5209   25.0949 C   0  0  0  0  0  0  0  0  0  0  0  0
   -2.0818  -47.5651   25.2248 C   0  0  0  0  0  0  0  0  0  0  0  0
   -2.1496  -50.9967   25.9768 C   0  0  0  0  0  0  0  0  0  0  0  0
   -0.7455  -51.1047   26.4936 C   0  0  0  0  0  0  0  0  0  0  0  0
    0.2725  -51.9058   25.7375 N   0  3  0  0  0  0  0  0  0  0  0  0
    1.3178  -51.2086   24.9182 C   0  0  0  0  0  0  0  0  0  0  0  0
    0.2453  -53.4042   25.8006 C   0  0  0  0  0  0  0  0  0  0  0  0
   -4.2745  -50.8825   20.1227 H   0  0  0  0  0  0  0  0  0  0  0  0
    0.2160  -49.3115   21.6995 H   0  0  0  0  0  0  0  0  0  0  0  0
    0.7380  -48.8580   20.0948 H   0  0  0  0  0  0  0  0  0  0  0  0
    1.0831  -50.4581   20.7062 H   0  0  0  0  0  0  0  0  0  0  0  0
    2.7666  -52.8396   16.9474 H   0  0  0  0  0  0  0  0  0  0  0  0
    2.7595  -51.3648   14.8894 H   0  0  0  0  0  0  0  0  0  0  0  0
    0.9695  -49.5967   14.6050 H   0  0  0  0  0  0  0  0  0  0  0  0
   -0.8135  -49.3037   16.3787 H   0  0  0  0  0  0  0  0  0  0  0  0
    2.0416  -53.5954   20.7585 H   0  0  0  0  0  0  0  0  0  0  0  0
    2.4943  -51.9683   20.3108 H   0  0  0  0  0  0  0  0  0  0  0  0
    3.0237  -53.3209   19.3396 H   0  0  0  0  0  0  0  0  0  0  0  0
   -2.8684  -48.7876   22.3993 H   0  0  0  0  0  0  0  0  0  0  0  0
   -2.4418  -49.2545   25.7833 H   0  0  0  0  0  0  0  0  0  0  0  0
   -4.8062  -47.9666   24.2346 H   0  0  0  0  0  0  0  0  0  0  0  0
   -4.7474  -47.9769   25.9808 H   0  0  0  0  0  0  0  0  0  0  0  0
   -4.9876  -49.4702   25.1059 H   0  0  0  0  0  0  0  0  0  0  0  0
   -2.3774  -46.7689   24.5739 H   0  0  0  0  0  0  0  0  0  0  0  0
   -1.0821  -47.8655   24.9896 H   0  0  0  0  0  0  0  0  0  0  0  0
   -2.1240  -47.2301   26.2401 H   0  0  0  0  0  0  0  0  0  0  0  0
   -2.4523  -51.9839   25.6962 H   0  0  0  0  0  0  0  0  0  0  0  0
   -2.6743  -50.5326   26.7856 H   0  0  0  0  0  0  0  0  0  0  0  0
   -0.8088  -51.5311   27.4729 H   0  0  0  0  0  0  0  0  0  0  0  0
   -0.3772  -50.1031   26.4160 H   0  0  0  0  0  0  0  0  0  0  0  0
   -0.1677  -51.1670   26.2860 H   0  0  0  0  0  0  0  0  0  0  0  0
    1.8294  -51.9242   24.3090 H   0  0  0  0  0  0  0  0  0  0  0  0
    2.0186  -50.7279   25.5684 H   0  0  0  0  0  0  0  0  0  0  0  0
    0.8511  -50.4764   24.2928 H   0  0  0  0  0  0  0  0  0  0  0  0
    0.8603  -53.8052   25.0222 H   0  0  0  0  0  0  0  0  0  0  0  0
   -0.7599  -53.7483   25.6739 H   0  0  0  0  0  0  0  0  0  0  0  0
    0.6160  -53.7280   26.7507 H   0  0  0  0  0  0  0  0  0  0  0  0
  1  2  1  0  0  0  0
  2  3  2  0  0  0  0
  3  4  1  0  0  0  0
  3 27  1  0  0  0  0
  4 15  1  0  0  0  0
  4  5  2  0  0  0  0
  5  6  1  0  0  0  0
  5  1  1  0  0  0  0
  6 28  1  0  0  0  0
  6 29  1  0  0  0  0
  6 30  1  0  0  0  0
  7  8  2  0  0  0  0
  8  9  1  0  0  0  0
  8 31  1  0  0  0  0
  9 10  2  0  0  0  0
  9 32  1  0  0  0  0
 10 11  1  0  0  0  0
 10 33  1  0  0  0  0
 11 12  2  0  0  0  0
 11 34  1  0  0  0  0
 12  1  1  0  0  0  0
 12  7  1  0  0  0  0
 13 14  1  0  0  0  0
 13 35  1  0  0  0  0
 13 36  1  0  0  0  0
 13 37  1  0  0  0  0
 14  7  1  0  0  0  0
 15 16  1  0  0  0  0
 15 38  1  0  0  0  0
 16 17  2  0  0  0  0
 16 18  1  0  0  0  0
 18 22  1  0  0  0  0
 18 19  1  0  0  0  0
 19 20  1  0  0  0  0
 19 21  1  0  0  0  0
 19 39  1  0  0  0  0
 20 40  1  0  0  0  0
 20 41  1  0  0  0  0
 20 42  1  0  0  0  0
 21 43  1  0  0  0  0
 21 44  1  0  0  0  0
 21 45  1  0  0  0  0
 22 23  1  0  0  0  0
 22 46  1  0  0  0  0
 22 47  1  0  0  0  0
 23 24  1  0  0  0  0
 23 48  1  0  0  0  0
 23 49  1  0  0  0  0
 24 25  1  0  0  0  0
 24 26  1  0  0  0  0
 24 50  1  0  0  0  0
 25 51  1  0  0  0  0
 25 52  1  0  0  0  0
 25 53  1  0  0  0  0
 26 54  1  0  0  0  0
 26 55  1  0  0  0  0
 26 56  1  0  0  0  0
M  CHG  1  24   1
M  END
>  <minimizedAffinity>
-6.41486

$$$$

 OpenBabel09092411003D

 59 60  0  0  0  0  0  0  0  0999 V2000
    0.8979  -51.0847   17.8706 C   0  0  0  0  0  0  0  0  0  0  0  0
    0.6397  -49.6201   17.6755 O   0  0  0  0  0  0  0  0  0  0  0  0
    0.9112  -51.6663   19.2531 N   0  0  0  0  0  0  0  0  0  0  0  0
    1.1694  -53.1310   19.4482 C   0  0  0  0  0  0  0  0  0  0  0  0
    1.1827  -53.7126   20.8308 C   0  0  0  0  0  0  0  0  0  0  0  0
    0.9378  -52.8296   22.0183 C   0  0  1  0  0  0  0  0  0  0  0  0
    0.6796  -51.3650   21.8232 C   0  0  0  0  0  0  0  0  0  0  0  0
    0.6663  -50.7833   20.4407 C   0  0  2  0  0  0  0  0  0  0  0  0
    0.4080  -49.3186   20.2456 C   0  0  0  0  0  0  0  0  0  0  0  0
    0.9511  -53.4112   23.4009 N   0  0  0  0  0  0  0  0  0  0  0  0
    0.5037  -52.5818   24.5678 C   0  0  0  0  0  0  0  0  0  0  0  0
    1.5174  -51.8761   25.4189 C   0  0  0  0  0  0  0  0  0  0  0  0
    1.0700  -51.0466   26.5859 C   0  0  0  0  0  0  0  0  0  0  0  0
   -0.3911  -50.9228   26.9018 N   0  0  0  0  0  0  0  0  0  0  0  0
   -1.4048  -51.6285   26.0507 C   0  0  0  0  0  0  0  0  0  0  0  0
   -0.9575  -52.4580   24.8837 N   0  0  0  0  0  0  0  0  0  0  0  0
   -2.8660  -51.5047   26.3666 C   0  0  0  0  0  0  0  0  0  0  0  0
   -3.3027  -50.9933   27.7074 C   0  0  0  0  0  0  0  0  0  0  0  0
   -3.8903  -51.8922   25.3416 C   0  0  0  0  0  0  0  0  0  0  0  0
    1.1429  -51.9677   16.6830 C   0  0  0  0  0  0  0  0  0  0  0  0
    2.3804  -51.7852   15.8553 N   0  3  2  0  0  0  0  0  0  0  0  0
    2.3174  -51.0093   14.5730 C   0  0  0  0  0  0  0  0  0  0  0  0
    3.6809  -52.3786   16.3096 C   0  0  0  0  0  0  0  0  0  0  0  0
    5.5787  -53.0857   14.6823 C   0  0  0  0  0  0  0  0  0  0  0  0
    4.9489  -52.0581   15.5751 C   0  0  0  0  0  0  0  0  0  0  0  0
    2.1273  -53.3358   19.0177 H   0  0  0  0  0  0  0  0  0  0  0  0
    0.3175  -53.5934   18.9951 H   0  0  0  0  0  0  0  0  0  0  0  0
    2.1461  -54.1569   20.9697 H   0  0  0  0  0  0  0  0  0  0  0  0
    0.3351  -54.3657   20.8310 H   0  0  0  0  0  0  0  0  0  0  0  0
    0.9776  -53.3817   22.9340 H   0  0  0  0  0  0  0  0  0  0  0  0
    1.4358  -50.8424   22.3709 H   0  0  0  0  0  0  0  0  0  0  0  0
   -0.3330  -51.2483   22.1488 H   0  0  0  0  0  0  0  0  0  0  0  0
    1.2577  -50.4807   21.2795 H   0  0  0  0  0  0  0  0  0  0  0  0
   -0.2265  -49.1785   19.3955 H   0  0  0  0  0  0  0  0  0  0  0  0
    1.3362  -48.8110   20.0854 H   0  0  0  0  0  0  0  0  0  0  0  0
   -0.0700  -48.9216   21.1167 H   0  0  0  0  0  0  0  0  0  0  0  0
    1.2535  -54.3374   23.5424 H   0  0  0  0  0  0  0  0  0  0  0  0
    2.5227  -51.9613   25.2016 H   0  0  0  0  0  0  0  0  0  0  0  0
    1.7675  -50.5611   27.1714 H   0  0  0  0  0  0  0  0  0  0  0  0
   -3.5704  -52.1323   26.8714 H   0  0  0  0  0  0  0  0  0  0  0  0
   -2.8105  -50.0657   27.9129 H   0  0  0  0  0  0  0  0  0  0  0  0
   -3.0472  -51.7075   28.4620 H   0  0  0  0  0  0  0  0  0  0  0  0
   -4.3619  -50.8418   27.7037 H   0  0  0  0  0  0  0  0  0  0  0  0
   -3.6422  -51.4439   24.4023 H   0  0  0  0  0  0  0  0  0  0  0  0
   -4.8551  -51.5522   25.6553 H   0  0  0  0  0  0  0  0  0  0  0  0
   -3.9042  -52.9569   25.2361 H   0  0  0  0  0  0  0  0  0  0  0  0
    1.1590  -52.9746   17.0448 H   0  0  0  0  0  0  0  0  0  0  0  0
    0.3553  -51.6993   16.0103 H   0  0  0  0  0  0  0  0  0  0  0  0
    2.3628  -51.3295   16.7677 H   0  0  0  0  0  0  0  0  0  0  0  0
    2.3496  -51.6859   13.7447 H   0  0  0  0  0  0  0  0  0  0  0  0
    3.1507  -50.3403   14.5196 H   0  0  0  0  0  0  0  0  0  0  0  0
    1.4069  -50.4482   14.5400 H   0  0  0  0  0  0  0  0  0  0  0  0
    3.8245  -52.0684   17.3235 H   0  0  0  0  0  0  0  0  0  0  0  0
    3.5500  -53.4251   16.1291 H   0  0  0  0  0  0  0  0  0  0  0  0
    6.4686  -52.6821   14.2463 H   0  0  0  0  0  0  0  0  0  0  0  0
    4.8917  -53.3538   13.9071 H   0  0  0  0  0  0  0  0  0  0  0  0
    5.8251  -53.9542   15.2566 H   0  0  0  0  0  0  0  0  0  0  0  0
    4.7450  -51.2027   14.9656 H   0  0  0  0  0  0  0  0  0  0  0  0
    5.6658  -51.9425   16.3610 H   0  0  0  0  0  0  0  0  0  0  0  0
  1  2  2  0  0  0  0
  1  3  1  0  0  0  0
  3  4  1  0  0  0  0
  4  5  1  0  0  0  0
  4 26  1  0  0  0  0
  4 27  1  0  0  0  0
  5  6  1  0  0  0  0
  5 28  1  0  0  0  0
  5 29  1  0  0  0  0
  6 10  1  0  0  0  0
  6  7  1  0  0  0  0
  6 30  1  1  0  0  0
  7  8  1  0  0  0  0
  7 31  1  0  0  0  0
  7 32  1  0  0  0  0
  8  9  1  0  0  0  0
  8  3  1  0  0  0  0
  8 33  1  1  0  0  0
  9 34  1  0  0  0  0
  9 35  1  0  0  0  0
  9 36  1  0  0  0  0
 10 11  1  0  0  0  0
 10 37  1  0  0  0  0
 11 12  2  0  0  0  0
 12 13  1  0  0  0  0
 12 38  1  0  0  0  0
 13 14  2  0  0  0  0
 13 39  1  0  0  0  0
 14 15  1  0  0  0  0
 15 17  1  0  0  0  0
 15 16  2  0  0  0  0
 16 11  1  0  0  0  0
 17 18  1  0  0  0  0
 17 19  1  0  0  0  0
 17 40  1  0  0  0  0
 18 41  1  0  0  0  0
 18 42  1  0  0  0  0
 18 43  1  0  0  0  0
 19 44  1  0  0  0  0
 19 45  1  0  0  0  0
 19 46  1  0  0  0  0
 20  1  1  0  0  0  0
 20 47  1  0  0  0  0
 20 48  1  0  0  0  0
 21 22  1  0  0  0  0
 21 20  1  0  0  0  0
 21 49  1  1  0  0  0
 22 50  1  0  0  0  0
 22 51  1  0  0  0  0
 22 52  1  0  0  0  0
 23 21  1  0  0  0  0
 23 53  1  0  0  0  0
 23 54  1  0  0  0  0
 24 25  1  0  0  0  0
 24 55  1  0  0  0  0
 24 56  1  0  0  0  0
 24 57  1  0  0  0  0
 25 23  1  0  0  0  0
 25 58  1  0  0  0  0
 25 59  1  0  0  0  0
M  CHG  1  21   1
M  END
>  <minimizedAffinity>
-8.50646

$$$$

 OpenBabel09092411003D

 63 64  0  0  0  0  0  0  0  0999 V2000
    0.7930  -52.1416   24.0981 C   0  0  0  0  0  0  0  0  0  0  0  0
    1.6038  -53.3825   24.3274 O   0  0  0  0  0  0  0  0  0  0  0  0
    0.5239  -51.6691   22.7002 N   0  0  0  0  0  0  0  0  0  0  0  0
   -0.2869  -50.4282   22.4709 C   0  0  0  0  0  0  0  0  0  0  0  0
   -0.5560  -49.9558   21.0729 C   0  0  0  0  0  0  0  0  0  0  0  0
   -0.0143  -50.7243   19.9042 C   0  0  2  0  0  0  0  0  0  0  0  0
    0.7966  -51.9652   20.1335 C   0  0  0  0  0  0  0  0  0  0  0  0
    0.8108  -51.9181   18.6343 C   0  0  0  0  0  0  0  0  0  0  0  0
    1.6123  -53.1898   19.8421 C   0  0  0  0  0  0  0  0  0  0  0  0
    1.0657  -52.4376   21.5315 C   0  0  0  0  0  0  0  0  0  0  0  0
   -0.2834  -50.2518   18.5062 N   0  0  0  0  0  0  0  0  0  0  0  0
   -1.6435  -50.4358   17.9011 C   0  0  0  0  0  0  0  0  0  0  0  0
   -2.7346  -51.0921   18.6940 O   0  0  0  0  0  0  0  0  0  0  0  0
   -1.9126  -49.9633   16.5031 C   0  0  0  0  0  0  0  0  0  0  0  0
   -1.0505  -50.2232   15.3033 C   0  0  0  0  0  0  0  0  0  0  0  0
   -1.6962  -49.5685   14.1181 N   0  0  0  0  0  0  0  0  0  0  0  0
   -2.9572  -48.9041   14.5854 C   0  0  0  0  0  0  0  0  0  0  0  0
   -3.9161  -48.1314   13.7290 C   0  0  0  0  0  0  0  0  0  0  0  0
   -3.0909  -49.1481   16.0594 N   0  0  0  0  0  0  0  0  0  0  0  0
   -4.2071  -48.6622   16.9358 C   0  0  0  0  0  0  0  0  0  0  0  0
    0.2513  -51.3731   25.2668 C   0  0  0  0  0  0  0  0  0  0  0  0
    0.4494  -51.8898   26.6610 N   0  3  2  0  0  0  0  0  0  0  0  0
   -0.4675  -52.9437   27.2076 C   0  0  0  0  0  0  0  0  0  0  0  0
   -1.8283  -52.5654   27.7127 C   0  0  0  0  0  0  0  0  0  0  0  0
   -0.0235  -54.3758   27.2491 C   0  0  0  0  0  0  0  0  0  0  0  0
    2.9871  -51.6992   27.1840 C   0  0  0  0  0  0  0  0  0  0  0  0
    1.5643  -51.3526   27.5087 C   0  0  0  0  0  0  0  0  0  0  0  0
    0.2193  -49.6311   22.9742 H   0  0  0  0  0  0  0  0  0  0  0  0
   -1.2577  -50.6989   22.8302 H   0  0  0  0  0  0  0  0  0  0  0  0
   -0.1607  -48.9642   21.0005 H   0  0  0  0  0  0  0  0  0  0  0  0
   -1.6151  -50.0716   20.9738 H   0  0  0  0  0  0  0  0  0  0  0  0
   -0.7013  -51.4524   19.5264 H   0  0  0  0  0  0  0  0  0  0  0  0
    0.2588  -51.0650   18.2990 H   0  0  0  0  0  0  0  0  0  0  0  0
    0.3626  -52.8084   18.2452 H   0  0  0  0  0  0  0  0  0  0  0  0
    1.8212  -51.8473   18.2892 H   0  0  0  0  0  0  0  0  0  0  0  0
    1.7192  -53.3036   18.7835 H   0  0  0  0  0  0  0  0  0  0  0  0
    1.1205  -54.0502   20.2454 H   0  0  0  0  0  0  0  0  0  0  0  0
    2.5791  -53.0892   20.2894 H   0  0  0  0  0  0  0  0  0  0  0  0
    2.1289  -52.4680   21.6480 H   0  0  0  0  0  0  0  0  0  0  0  0
    0.5384  -53.3673   21.5827 H   0  0  0  0  0  0  0  0  0  0  0  0
    0.4327  -49.8209   17.9858 H   0  0  0  0  0  0  0  0  0  0  0  0
   -0.1682  -50.7584   15.2948 H   0  0  0  0  0  0  0  0  0  0  0  0
   -3.5643  -48.1224   12.7185 H   0  0  0  0  0  0  0  0  0  0  0  0
   -3.9876  -47.1269   14.0907 H   0  0  0  0  0  0  0  0  0  0  0  0
   -4.8804  -48.5936   13.7669 H   0  0  0  0  0  0  0  0  0  0  0  0
   -4.9067  -48.1064   16.3471 H   0  0  0  0  0  0  0  0  0  0  0  0
   -3.8090  -48.0335   17.7047 H   0  0  0  0  0  0  0  0  0  0  0  0
   -4.7018  -49.5001   17.3808 H   0  0  0  0  0  0  0  0  0  0  0  0
    0.6978  -50.4014   25.2312 H   0  0  0  0  0  0  0  0  0  0  0  0
   -0.8083  -51.4329   25.1306 H   0  0  0  0  0  0  0  0  0  0  0  0
    1.3655  -52.0545   26.2438 H   0  0  0  0  0  0  0  0  0  0  0  0
   -1.4867  -52.7453   26.9491 H   0  0  0  0  0  0  0  0  0  0  0  0
   -1.7907  -52.4325   28.7738 H   0  0  0  0  0  0  0  0  0  0  0  0
   -2.5255  -53.3415   27.4749 H   0  0  0  0  0  0  0  0  0  0  0  0
   -2.1395  -51.6523   27.2497 H   0  0  0  0  0  0  0  0  0  0  0  0
    1.0107  -54.4209   27.5197 H   0  0  0  0  0  0  0  0  0  0  0  0
   -0.1596  -54.8195   26.2850 H   0  0  0  0  0  0  0  0  0  0  0  0
   -0.6049  -54.9087   27.9722 H   0  0  0  0  0  0  0  0  0  0  0  0
    3.6388  -51.2299   27.8911 H   0  0  0  0  0  0  0  0  0  0  0  0
    3.2222  -51.3544   26.1987 H   0  0  0  0  0  0  0  0  0  0  0  0
    3.1152  -52.7605   27.2306 H   0  0  0  0  0  0  0  0  0  0  0  0
    1.4910  -50.2856   27.4756 H   0  0  0  0  0  0  0  0  0  0  0  0
    1.4051  -51.8274   28.4543 H   0  0  0  0  0  0  0  0  0  0  0  0
  1  2  2  0  0  0  0
  1  3  1  0  0  0  0
  3  4  1  0  0  0  0
  4  5  1  0  0  0  0
  4 28  1  0  0  0  0
  4 29  1  0  0  0  0
  5  6  1  0  0  0  0
  5 30  1  0  0  0  0
  5 31  1  0  0  0  0
  6 11  1  0  0  0  0
  6  7  1  0  0  0  0
  6 32  1  6  0  0  0
  7  8  1  0  0  0  0
  7  9  1  0  0  0  0
  7 10  1  0  0  0  0
  8 33  1  0  0  0  0
  8 34  1  0  0  0  0
  8 35  1  0  0  0  0
  9 36  1  0  0  0  0
  9 37  1  0  0  0  0
  9 38  1  0  0  0  0
 10  3  1  0  0  0  0
 10 39  1  0  0  0  0
 10 40  1  0  0  0  0
 11 12  1  0  0  0  0
 11 41  1  0  0  0  0
 12 13  2  0  0  0  0
 12 14  1  0  0  0  0
 14 15  2  0  0  0  0
 15 16  1  0  0  0  0
 15 42  1  0  0  0  0
 16 17  2  0  0  0  0
 17 18  1  0  0  0  0
 17 19  1  0  0  0  0
 18 43  1  0  0  0  0
 18 44  1  0  0  0  0
 18 45  1  0  0  0  0
 19 20  1  0  0  0  0
 19 14  1  0  0  0  0
 20 46  1  0  0  0  0
 20 47  1  0  0  0  0
 20 48  1  0  0  0  0
 21  1  1  0  0  0  0
 21 49  1  0  0  0  0
 21 50  1  0  0  0  0
 22 21  1  0  0  0  0
 22 23  1  0  0  0  0
 22 51  1  6  0  0  0
 23 24  1  0  0  0  0
 23 25  1  0  0  0  0
 23 52  1  0  0  0  0
 24 53  1  0  0  0  0
 24 54  1  0  0  0  0
 24 55  1  0  0  0  0
 25 56  1  0  0  0  0
 25 57  1  0  0  0  0
 25 58  1  0  0  0  0
 26 27  1  0  0  0  0
 26 59  1  0  0  0  0
 26 60  1  0  0  0  0
 26 61  1  0  0  0  0
 27 22  1  0  0  0  0
 27 62  1  0  0  0  0
 27 63  1  0  0  0  0
M  CHG  1  22   1
M  END
>  <minimizedAffinity>
-8.56102

$$$$

 OpenBabel09092411003D

 61 62  0  0  0  0  0  0  0  0999 V2000
    1.4483  -53.0311   21.1850 C   0  0  0  0  0  0  0  0  0  0  0  0
    2.0410  -54.4085   21.2224 O   0  0  0  0  0  0  0  0  0  0  0  0
    0.9840  -52.3796   22.4539 N   0  0  0  0  0  0  0  0  0  0  0  0
    0.3743  -51.0142   22.5720 C   0  0  0  0  0  0  0  0  0  0  0  0
    0.0614  -50.7699   24.0186 C   0  0  0  0  0  0  0  0  0  0  0  0
    0.4778  -51.9843   24.7944 C   0  0  2  0  0  0  0  0  0  0  0  0
    1.0480  -52.9792   23.8274 C   0  0  0  0  0  0  0  0  0  0  0  0
    1.3198  -52.3051   19.8787 C   0  0  0  0  0  0  0  0  0  0  0  0
    2.5919  -51.5639   20.1655 C   0  0  0  0  0  0  0  0  0  0  0  0
    0.0477  -53.0463   19.5918 C   0  0  0  0  0  0  0  0  0  0  0  0
    0.3902  -50.3134   18.4933 C   0  0  0  0  0  0  0  0  0  0  0  0
    0.2617  -49.5875   17.1870 C   0  0  0  0  0  0  0  0  0  0  0  0
    0.9343  -50.1273   15.9597 C   0  0  0  0  0  0  0  0  0  0  0  0
    1.7354  -51.3929   16.0387 C   0  0  0  0  0  0  0  0  0  0  0  0
    1.8638  -52.1189   17.3450 C   0  0  0  0  0  0  0  0  0  0  0  0
    1.1913  -51.5791   18.5723 C   0  0  0  0  0  0  0  0  0  0  0  0
   -0.1044  -48.3338   20.1016 C   0  0  0  0  0  0  0  0  0  0  0  0
   -0.2824  -49.7736   19.7206 O   0  0  0  0  0  0  0  0  0  0  0  0
    0.3470  -52.1711   26.2769 N   0  3  2  0  0  0  0  0  0  0  0  0
    1.5089  -51.8694   27.1764 C   0  0  0  0  0  0  0  0  0  0  0  0
   -0.9458  -52.6597   26.8601 C   0  0  0  0  0  0  0  0  0  0  0  0
   -2.1877  -51.8281   26.7330 C   0  0  0  0  0  0  0  0  0  0  0  0
   -3.5059  -52.4869   26.4530 O   0  0  0  0  0  0  0  0  0  0  0  0
   -2.1115  -50.3379   26.8859 N   0  0  0  0  0  0  0  0  0  0  0  0
   -3.3535  -49.5064   26.7589 C   0  0  0  0  0  0  0  0  0  0  0  0
   -3.9635  -48.8784   27.9768 C   0  0  0  0  0  0  0  0  0  0  0  0
   -3.9855  -49.3029   25.4138 C   0  0  0  0  0  0  0  0  0  0  0  0
   -0.5243  -50.9664   21.9930 H   0  0  0  0  0  0  0  0  0  0  0  0
    1.0528  -50.2713   22.2078 H   0  0  0  0  0  0  0  0  0  0  0  0
   -0.9887  -50.6039   24.1400 H   0  0  0  0  0  0  0  0  0  0  0  0
    0.5848  -49.9059   24.3714 H   0  0  0  0  0  0  0  0  0  0  0  0
    0.3844  -52.1172   25.8520 H   0  0  0  0  0  0  0  0  0  0  0  0
    0.4756  -53.8828   23.8562 H   0  0  0  0  0  0  0  0  0  0  0  0
    2.0604  -53.2102   24.0854 H   0  0  0  0  0  0  0  0  0  0  0  0
    2.8080  -50.8994   19.3552 H   0  0  0  0  0  0  0  0  0  0  0  0
    3.3944  -52.2627   20.2774 H   0  0  0  0  0  0  0  0  0  0  0  0
    2.4808  -51.0008   21.0686 H   0  0  0  0  0  0  0  0  0  0  0  0
   -0.3411  -52.7343   18.6451 H   0  0  0  0  0  0  0  0  0  0  0  0
   -0.6684  -52.8358   20.3584 H   0  0  0  0  0  0  0  0  0  0  0  0
    0.2452  -54.0976   19.5673 H   0  0  0  0  0  0  0  0  0  0  0  0
   -0.2894  -48.7167   17.1326 H   0  0  0  0  0  0  0  0  0  0  0  0
    0.8459  -49.6279   15.0609 H   0  0  0  0  0  0  0  0  0  0  0  0
    2.1982  -51.7642   15.1943 H   0  0  0  0  0  0  0  0  0  0  0  0
    2.4148  -52.9898   17.3993 H   0  0  0  0  0  0  0  0  0  0  0  0
   -0.6535  -48.1314   20.9974 H   0  0  0  0  0  0  0  0  0  0  0  0
   -0.4664  -47.7086   19.3123 H   0  0  0  0  0  0  0  0  0  0  0  0
    0.9338  -48.1343   20.2669 H   0  0  0  0  0  0  0  0  0  0  0  0
    0.8997  -51.5840   25.6522 H   0  0  0  0  0  0  0  0  0  0  0  0
    1.3640  -52.3521   28.1203 H   0  0  0  0  0  0  0  0  0  0  0  0
    1.5807  -50.8120   27.3238 H   0  0  0  0  0  0  0  0  0  0  0  0
    2.4108  -52.2289   26.7267 H   0  0  0  0  0  0  0  0  0  0  0  0
   -0.7771  -52.8050   27.9067 H   0  0  0  0  0  0  0  0  0  0  0  0
   -1.1687  -53.5259   26.2728 H   0  0  0  0  0  0  0  0  0  0  0  0
   -1.2463  -49.9055   27.0696 H   0  0  0  0  0  0  0  0  0  0  0  0
   -3.0066  -49.9052   27.6892 H   0  0  0  0  0  0  0  0  0  0  0  0
   -4.6574  -48.1207   27.6778 H   0  0  0  0  0  0  0  0  0  0  0  0
   -3.1930  -48.4400   28.5759 H   0  0  0  0  0  0  0  0  0  0  0  0
   -4.4753  -49.6265   28.5454 H   0  0  0  0  0  0  0  0  0  0  0  0
   -3.8074  -48.3007   25.0840 H   0  0  0  0  0  0  0  0  0  0  0  0
   -5.0395  -49.4727   25.4856 H   0  0  0  0  0  0  0  0  0  0  0  0
   -3.5604  -49.9901   24.7124 H   0  0  0  0  0  0  0  0  0  0  0  0
  1  2  2  0  0  0  0
  1  3  1  0  0  0  0
  3  4  1  0  0  0  0
  4  5  1  0  0  0  0
  4 28  1  0  0  0  0
  4 29  1  0  0  0  0
  5  6  1  0  0  0  0
  5 30  1  0  0  0  0
  5 31  1  0  0  0  0
  6 19  1  0  0  0  0
  6  7  1  0  0  0  0
  6 32  1  1  0  0  0
  7  3  1  0  0  0  0
  7 33  1  0  0  0  0
  7 34  1  0  0  0  0
  8  9  1  0  0  0  0
  8 10  1  0  0  0  0
  8  1  1  0  0  0  0
  9 35  1  0  0  0  0
  9 36  1  0  0  0  0
  9 37  1  0  0  0  0
 10 38  1  0  0  0  0
 10 39  1  0  0  0  0
 10 40  1  0  0  0  0
 11 12  2  0  0  0  0
 12 13  1  0  0  0  0
 12 41  1  0  0  0  0
 13 14  2  0  0  0  0
 13 42  1  0  0  0  0
 14 15  1  0  0  0  0
 14 43  1  0  0  0  0
 15 16  2  0  0  0  0
 15 44  1  0  0  0  0
 16  8  1  0  0  0  0
 16 11  1  0  0  0  0
 17 18  1  0  0  0  0
 17 45  1  0  0  0  0
 17 46  1  0  0  0  0
 17 47  1  0  0  0  0
 18 11  1  0  0  0  0
 19 20  1  0  0  0  0
 19 21  1  0  0  0  0
 19 48  1  1  0  0  0
 20 49  1  0  0  0  0
 20 50  1  0  0  0  0
 20 51  1  0  0  0  0
 21 22  1  0  0  0  0
 21 52  1  0  0  0  0
 21 53  1  0  0  0  0
 22 23  2  0  0  0  0
 22 24  1  0  0  0  0
 24 25  1  0  0  0  0
 24 54  1  0  0  0  0
 25 26  1  0  0  0  0
 25 27  1  0  0  0  0
 25 55  1  0  0  0  0
 26 56  1  0  0  0  0
 26 57  1  0  0  0  0
 26 58  1  0  0  0  0
 27 59  1  0  0  0  0
 27 60  1  0  0  0  0
 27 61  1  0  0  0  0
M  CHG  1  19   1
M  END
>  <minimizedAffinity>
-7.78975

$$$$

 OpenBabel09092411003D

 64 67  0  0  0  0  0  0  0  0999 V2000
    1.2238  -51.7510   17.1823 C   0  0  2  0  0  0  0  0  0  0  0  0
    0.7676  -50.3556   17.4902 C   0  0  0  0  0  0  0  0  0  0  0  0
    0.5797  -50.2462   18.9743 O   0  0  0  0  0  0  0  0  0  0  0  0
    0.9198  -51.5741   19.5837 C   0  0  0  0  0  0  0  0  0  0  0  0
    1.2903  -52.9516   20.0474 C   0  0  0  0  0  0  0  0  0  0  0  0
    1.2410  -53.2900   21.5079 C   0  0  0  0  0  0  0  0  0  0  0  0
    0.8213  -52.2508   22.5047 N   0  0  0  0  0  0  0  0  0  0  0  0
    0.7720  -52.5892   23.9652 C   0  0  0  0  0  0  0  0  0  0  0  0
    1.1424  -53.9667   24.4288 O   0  0  0  0  0  0  0  0  0  0  0  0
    0.3522  -51.5499   24.9621 N   0  0  0  0  0  0  0  0  0  0  0  0
    0.4508  -50.8732   22.0411 C   0  0  0  0  0  0  0  0  0  0  0  0
    0.5001  -50.5347   20.5806 C   0  0  0  0  0  0  0  0  0  0  0  0
    1.3179  -52.5040   18.4762 C   0  0  0  0  0  0  0  0  0  0  0  0
    1.5318  -52.2974   15.8198 N   0  0  0  0  0  0  0  0  0  0  0  0
    1.3032  -48.3196   12.4843 C   0  0  0  0  0  0  0  0  0  0  0  0
    2.0749  -49.4352   13.1247 C   0  0  0  0  0  0  0  0  0  0  0  0
    1.4176  -50.3085   14.1520 N   0  0  0  0  0  0  0  0  0  0  0  0
    2.1891  -51.4241   14.7925 C   0  0  0  0  0  0  0  0  0  0  0  0
    3.6180  -51.6664   14.4057 C   0  0  0  0  0  0  0  0  0  0  0  0
    4.3896  -52.7819   15.0461 C   0  0  0  0  0  0  0  0  0  0  0  0
    5.8184  -53.0242   14.6593 C   0  0  0  0  0  0  0  0  0  0  0  0
    6.4757  -52.1509   13.6320 C   0  0  0  0  0  0  0  0  0  0  0  0
    5.7042  -51.0353   12.9915 C   0  0  0  0  0  0  0  0  0  0  0  0
    4.2753  -50.7931   13.3784 C   0  0  0  0  0  0  0  0  0  0  0  0
    3.5037  -49.6775   12.7379 C   0  0  0  0  0  0  0  0  0  0  0  0
    4.1610  -48.8042   11.7106 C   0  0  0  0  0  0  0  0  0  0  0  0
    0.3029  -51.8883   26.4226 C   0  0  0  0  0  0  0  0  0  0  0  0
    1.5503  -51.8134   27.2523 C   0  0  0  0  0  0  0  0  0  0  0  0
    1.5009  -52.1511   28.7130 C   0  0  0  0  0  0  0  0  0  0  0  0
    2.8471  -51.4009   26.6214 C   0  0  0  0  0  0  0  0  0  0  0  0
    1.4435  -52.1409   16.2104 H   0  0  0  0  0  0  0  0  0  0  0  0
   -0.1582  -50.1579   16.9914 H   0  0  0  0  0  0  0  0  0  0  0  0
    1.4931  -49.6447   17.1540 H   0  0  0  0  0  0  0  0  0  0  0  0
    2.2950  -53.1267   19.7235 H   0  0  0  0  0  0  0  0  0  0  0  0
    0.5233  -53.5674   19.6263 H   0  0  0  0  0  0  0  0  0  0  0  0
    2.2253  -53.6046   21.7855 H   0  0  0  0  0  0  0  0  0  0  0  0
    0.4578  -54.0167   21.5657 H   0  0  0  0  0  0  0  0  0  0  0  0
    0.1090  -50.6457   24.6578 H   0  0  0  0  0  0  0  0  0  0  0  0
    1.1096  -50.1924   22.5384 H   0  0  0  0  0  0  0  0  0  0  0  0
   -0.5915  -50.8075   22.2737 H   0  0  0  0  0  0  0  0  0  0  0  0
    1.1794  -49.7146   20.4763 H   0  0  0  0  0  0  0  0  0  0  0  0
   -0.5260  -50.3577   20.3343 H   0  0  0  0  0  0  0  0  0  0  0  0
    0.6586  -53.3465   18.4548 H   0  0  0  0  0  0  0  0  0  0  0  0
    2.3162  -52.8577   18.6286 H   0  0  0  0  0  0  0  0  0  0  0  0
    1.3026  -53.2292   15.5998 H   0  0  0  0  0  0  0  0  0  0  0  0
    0.3097  -48.2994   12.8812 H   0  0  0  0  0  0  0  0  0  0  0  0
    1.2616  -48.4759   11.4266 H   0  0  0  0  0  0  0  0  0  0  0  0
    1.7878  -47.3877   12.6883 H   0  0  0  0  0  0  0  0  0  0  0  0
    3.9374  -53.3827   15.7529 H   0  0  0  0  0  0  0  0  0  0  0  0
    6.3492  -53.7917   15.0999 H   0  0  0  0  0  0  0  0  0  0  0  0
    7.4588  -52.3176   13.3659 H   0  0  0  0  0  0  0  0  0  0  0  0
    6.1564  -50.4345   12.2847 H   0  0  0  0  0  0  0  0  0  0  0  0
    5.1717  -49.1238   11.5648 H   0  0  0  0  0  0  0  0  0  0  0  0
    4.1531  -47.7888   12.0480 H   0  0  0  0  0  0  0  0  0  0  0  0
    3.6270  -48.8770   10.7862 H   0  0  0  0  0  0  0  0  0  0  0  0
   -0.0562  -52.8937   26.4948 H   0  0  0  0  0  0  0  0  0  0  0  0
   -0.3126  -51.1155   26.8335 H   0  0  0  0  0  0  0  0  0  0  0  0
    1.1150  -50.9673   26.7629 H   0  0  0  0  0  0  0  0  0  0  0  0
    2.0327  -53.0633   28.8864 H   0  0  0  0  0  0  0  0  0  0  0  0
    0.4820  -52.2689   29.0176 H   0  0  0  0  0  0  0  0  0  0  0  0
    1.9528  -51.3621   29.2770 H   0  0  0  0  0  0  0  0  0  0  0  0
    3.6173  -52.0857   26.9089 H   0  0  0  0  0  0  0  0  0  0  0  0
    3.1055  -50.4155   26.9488 H   0  0  0  0  0  0  0  0  0  0  0  0
    2.7435  -51.4072   25.5564 H   0  0  0  0  0  0  0  0  0  0  0  0
  1 14  1  0  0  0  0
  1  2  1  0  0  0  0
  1 31  1  6  0  0  0
  2  3  1  0  0  0  0
  2 32  1  0  0  0  0
  2 33  1  0  0  0  0
  3  4  1  0  0  0  0
  4  5  1  0  0  0  0
  4 13  1  0  0  0  0
  5  6  1  0  0  0  0
  5 34  1  0  0  0  0
  5 35  1  0  0  0  0
  6  7  1  0  0  0  0
  6 36  1  0  0  0  0
  6 37  1  0  0  0  0
  7  8  1  0  0  0  0
  7 11  1  0  0  0  0
  8  9  2  0  0  0  0
  8 10  1  0  0  0  0
 10 27  1  0  0  0  0
 10 38  1  0  0  0  0
 11 12  1  0  0  0  0
 11 39  1  0  0  0  0
 11 40  1  0  0  0  0
 12  4  1  0  0  0  0
 12 41  1  0  0  0  0
 12 42  1  0  0  0  0
 13  1  1  0  0  0  0
 13 43  1  0  0  0  0
 13 44  1  0  0  0  0
 14 45  1  0  0  0  0
 15 16  1  0  0  0  0
 15 46  1  0  0  0  0
 15 47  1  0  0  0  0
 15 48  1  0  0  0  0
 16 17  2  0  0  0  0
 17 18  1  0  0  0  0
 18 14  1  0  0  0  0
 18 19  2  0  0  0  0
 19 20  1  0  0  0  0
 20 21  2  0  0  0  0
 20 49  1  0  0  0  0
 21 22  1  0  0  0  0
 21 50  1  0  0  0  0
 22 23  2  0  0  0  0
 22 51  1  0  0  0  0
 23 24  1  0  0  0  0
 23 52  1  0  0  0  0
 24 25  2  0  0  0  0
 24 19  1  0  0  0  0
 25 26  1  0  0  0  0
 25 16  1  0  0  0  0
 26 53  1  0  0  0  0
 26 54  1  0  0  0  0
 26 55  1  0  0  0  0
 27 28  1  0  0  0  0
 27 56  1  0  0  0  0
 27 57  1  0  0  0  0
 28 29  1  0  0  0  0
 28 30  1  0  0  0  0
 28 58  1  0  0  0  0
 29 59  1  0  0  0  0
 29 60  1  0  0  0  0
 29 61  1  0  0  0  0
 30 62  1  0  0  0  0
 30 63  1  0  0  0  0
 30 64  1  0  0  0  0
M  END
>  <minimizedAffinity>
-8.46976

$$$$

 OpenBabel09092411003D

 61 62  0  0  0  0  0  0  0  0999 V2000
   -0.3473  -51.0977   25.7718 N   0  0  0  0  0  0  0  0  0  0  0  0
   -1.5352  -50.1875   25.8740 C   0  0  1  0  0  0  0  0  0  0  0  0
   -2.6090  -50.2533   26.9192 C   0  0  0  0  0  0  0  0  0  0  0  0
   -3.5953  -49.1582   26.6402 C   0  0  0  0  0  0  0  0  0  0  0  0
   -3.1311  -48.4155   25.4224 N   0  0  0  0  0  0  0  0  0  0  0  0
   -3.8192  -47.2426   24.7893 C   0  0  0  0  0  0  0  0  0  0  0  0
   -5.0932  -46.7131   25.3780 O   0  0  0  0  0  0  0  0  0  0  0  0
   -3.2332  -46.5991   23.5676 N   0  0  0  0  0  0  0  0  0  0  0  0
   -1.8578  -49.0517   24.9489 C   0  0  0  0  0  0  0  0  0  0  0  0
   -3.9213  -45.4262   22.9345 C   0  0  0  0  0  0  0  0  0  0  0  0
   -3.4050  -44.0376   23.1690 C   0  0  0  0  0  0  0  0  0  0  0  0
   -5.1258  -45.6421   22.0668 C   0  0  0  0  0  0  0  0  0  0  0  0
   -0.0113  -51.7482   24.4626 S   0  0  0  0  0  0  0  0  0  0  0  0
    1.2568  -50.9503   24.3917 O   0  0  0  0  0  0  0  0  0  0  0  0
   -1.2795  -52.5461   24.5335 O   0  0  0  0  0  0  0  0  0  0  0  0
    0.3247  -52.3986   23.1534 C   0  0  0  0  0  0  0  0  0  0  0  0
    1.2116  -53.6079   23.1225 C   0  0  0  0  0  0  0  0  0  0  0  0
    1.5476  -54.2583   21.8133 C   0  0  0  0  0  0  0  0  0  0  0  0
    0.9968  -53.6994   20.5350 C   0  0  0  0  0  0  0  0  0  0  0  0
    0.1099  -52.4901   20.5658 C   0  0  0  0  0  0  0  0  0  0  0  0
   -0.2261  -51.8397   21.8750 C   0  0  0  0  0  0  0  0  0  0  0  0
   -1.1130  -50.6303   21.9059 C   0  0  0  0  0  0  0  0  0  0  0  0
   -0.4409  -51.9311   19.2875 O   0  0  0  0  0  0  0  0  0  0  0  0
    0.4140  -51.0524   18.4233 C   0  0  0  0  0  0  0  0  0  0  0  0
    0.2489  -49.5624   18.4733 C   0  0  0  0  0  0  0  0  0  0  0  0
    1.4341  -51.6637   17.5090 C   0  0  0  0  0  0  0  0  0  0  0  0
    0.4896  -52.7083   27.6307 C   0  0  0  0  0  0  0  0  0  0  0  0
    0.5046  -51.3575   26.9788 C   0  0  0  0  0  0  0  0  0  0  0  0
   -0.6879  -50.8368   25.8012 H   0  0  0  0  0  0  0  0  0  0  0  0
   -2.1798  -50.1168   27.8898 H   0  0  0  0  0  0  0  0  0  0  0  0
   -3.0947  -51.2064   26.8935 H   0  0  0  0  0  0  0  0  0  0  0  0
   -3.6436  -48.4915   27.4757 H   0  0  0  0  0  0  0  0  0  0  0  0
   -4.5698  -49.5685   26.4764 H   0  0  0  0  0  0  0  0  0  0  0  0
   -2.3970  -46.9466   23.1813 H   0  0  0  0  0  0  0  0  0  0  0  0
   -1.0649  -48.3334   24.9656 H   0  0  0  0  0  0  0  0  0  0  0  0
   -1.9712  -49.4092   23.9468 H   0  0  0  0  0  0  0  0  0  0  0  0
   -4.0870  -44.3879   23.1332 H   0  0  0  0  0  0  0  0  0  0  0  0
   -2.3360  -44.0420   23.1230 H   0  0  0  0  0  0  0  0  0  0  0  0
   -3.7191  -43.6985   24.1340 H   0  0  0  0  0  0  0  0  0  0  0  0
   -3.7916  -43.3816   22.4172 H   0  0  0  0  0  0  0  0  0  0  0  0
   -5.1546  -46.6618   21.7439 H   0  0  0  0  0  0  0  0  0  0  0  0
   -5.0704  -44.9992   21.2133 H   0  0  0  0  0  0  0  0  0  0  0  0
   -6.0115  -45.4193   22.6243 H   0  0  0  0  0  0  0  0  0  0  0  0
    1.5906  -53.9924   24.0020 H   0  0  0  0  0  0  0  0  0  0  0  0
    2.1578  -55.0903   21.7921 H   0  0  0  0  0  0  0  0  0  0  0  0
    1.2280  -54.1469   19.6343 H   0  0  0  0  0  0  0  0  0  0  0  0
   -1.4073  -50.3782   20.9085 H   0  0  0  0  0  0  0  0  0  0  0  0
   -0.5813  -49.8091   22.3392 H   0  0  0  0  0  0  0  0  0  0  0  0
   -1.9831  -50.8409   22.4920 H   0  0  0  0  0  0  0  0  0  0  0  0
    0.2927  -52.0619   18.7565 H   0  0  0  0  0  0  0  0  0  0  0  0
    0.7428  -49.1204   17.6333 H   0  0  0  0  0  0  0  0  0  0  0  0
    0.6785  -49.1861   19.3782 H   0  0  0  0  0  0  0  0  0  0  0  0
   -0.7923  -49.3177   18.4441 H   0  0  0  0  0  0  0  0  0  0  0  0
    1.8730  -50.8993   16.9024 H   0  0  0  0  0  0  0  0  0  0  0  0
    0.9609  -52.3895   16.8811 H   0  0  0  0  0  0  0  0  0  0  0  0
    2.1960  -52.1384   18.0913 H   0  0  0  0  0  0  0  0  0  0  0  0
    1.1534  -52.7067   28.4699 H   0  0  0  0  0  0  0  0  0  0  0  0
    0.8074  -53.4480   26.9259 H   0  0  0  0  0  0  0  0  0  0  0  0
   -0.5027  -52.9338   27.9613 H   0  0  0  0  0  0  0  0  0  0  0  0
    1.5167  -51.1653   26.6897 H   0  0  0  0  0  0  0  0  0  0  0  0
    0.0763  -50.7201   27.7239 H   0  0  0  0  0  0  0  0  0  0  0  0
  1 13  1  0  0  0  0
  2  1  1  0  0  0  0
  2  3  1  0  0  0  0
  2 29  1  6  0  0  0
  3  4  1  0  0  0  0
  3 30  1  0  0  0  0
  3 31  1  0  0  0  0
  4  5  1  0  0  0  0
  4 32  1  0  0  0  0
  4 33  1  0  0  0  0
  5  6  1  0  0  0  0
  5  9  1  0  0  0  0
  6  7  2  0  0  0  0
  6  8  1  0  0  0  0
  8 10  1  0  0  0  0
  8 34  1  0  0  0  0
  9  2  1  0  0  0  0
  9 35  1  0  0  0  0
  9 36  1  0  0  0  0
 10 11  1  0  0  0  0
 10 12  1  0  0  0  0
 10 37  1  0  0  0  0
 11 38  1  0  0  0  0
 11 39  1  0  0  0  0
 11 40  1  0  0  0  0
 12 41  1  0  0  0  0
 12 42  1  0  0  0  0
 12 43  1  0  0  0  0
 13 14  2  0  0  0  0
 13 15  2  0  0  0  0
 13 16  1  0  0  0  0
 16 17  2  0  0  0  0
 17 18  1  0  0  0  0
 17 44  1  0  0  0  0
 18 19  2  0  0  0  0
 18 45  1  0  0  0  0
 19 20  1  0  0  0  0
 19 46  1  0  0  0  0
 20 23  1  0  0  0  0
 20 21  2  0  0  0  0
 21 22  1  0  0  0  0
 21 16  1  0  0  0  0
 22 47  1  0  0  0  0
 22 48  1  0  0  0  0
 22 49  1  0  0  0  0
 23 24  1  0  0  0  0
 24 25  1  0  0  0  0
 24 26  1  0  0  0  0
 24 50  1  0  0  0  0
 25 51  1  0  0  0  0
 25 52  1  0  0  0  0
 25 53  1  0  0  0  0
 26 54  1  0  0  0  0
 26 55  1  0  0  0  0
 26 56  1  0  0  0  0
 27 28  1  0  0  0  0
 27 57  1  0  0  0  0
 27 58  1  0  0  0  0
 27 59  1  0  0  0  0
 28  1  1  0  0  0  0
 28 60  1  0  0  0  0
 28 61  1  0  0  0  0
M  END
>  <minimizedAffinity>
-6.63854

$$$$

 OpenBabel09092411003D

 37 38  0  0  0  0  0  0  0  0999 V2000
   -2.3922  -52.4044   25.9744 C   0  0  0  0  0  0  0  0  0  0  0  0
   -1.2298  -52.4974   25.0309 C   0  0  0  0  0  0  0  0  0  0  0  0
    0.1459  -52.7740   25.5608 C   0  0  0  0  0  0  0  0  0  0  0  0
    0.3593  -52.9576   27.0341 N   0  0  0  0  0  0  0  0  0  0  0  0
   -0.8030  -52.8646   27.9776 C   0  0  0  0  0  0  0  0  0  0  0  0
   -2.1788  -52.5880   27.4477 N   0  0  0  0  0  0  0  0  0  0  0  0
   -5.5678  -50.4412   24.6285 N   0  0  0  0  0  0  0  0  0  0  0  0
   -4.1920  -50.7178   25.1584 C   0  0  0  0  0  0  0  0  0  0  0  0
   -3.2403  -49.5842   25.4021 O   0  0  0  0  0  0  0  0  0  0  0  0
   -3.7680  -52.1278   25.4446 N   0  0  0  0  0  0  0  0  0  0  0  0
   -5.9918  -49.0311   24.3424 C   0  0  0  0  0  0  0  0  0  0  0  0
   -7.4775  -49.3813   22.2400 C   0  0  0  0  0  0  0  0  0  0  0  0
   -7.2637  -48.7680   23.5920 C   0  0  0  0  0  0  0  0  0  0  0  0
    1.3084  -52.8670   24.6172 O   0  0  0  0  0  0  0  0  0  0  0  0
    1.1793  -53.6476   23.3429 C   0  0  0  0  0  0  0  0  0  0  0  0
    0.9891  -52.9299   22.0396 C   0  0  0  0  0  0  0  0  0  0  0  0
    0.9339  -53.7058   20.7571 C   0  0  0  0  0  0  0  0  0  0  0  0
    0.7436  -52.9879   19.4538 C   0  0  0  0  0  0  0  0  0  0  0  0
    0.6085  -51.4942   19.4331 C   0  0  0  0  0  0  0  0  0  0  0  0
    0.6637  -50.7183   20.7156 C   0  0  0  0  0  0  0  0  0  0  0  0
    0.5286  -49.2245   20.6949 F   0  0  0  0  0  0  0  0  0  0  0  0
    0.8539  -51.4360   22.0189 C   0  0  0  0  0  0  0  0  0  0  0  0
   -1.3766  -52.3711   24.0172 H   0  0  0  0  0  0  0  0  0  0  0  0
   -0.6562  -52.9909   28.9913 H   0  0  0  0  0  0  0  0  0  0  0  0
   -6.1925  -51.1851   24.4685 H   0  0  0  0  0  0  0  0  0  0  0  0
   -4.3927  -52.8717   25.2847 H   0  0  0  0  0  0  0  0  0  0  0  0
   -6.0833  -48.5382   25.2877 H   0  0  0  0  0  0  0  0  0  0  0  0
   -5.2345  -48.6773   23.6745 H   0  0  0  0  0  0  0  0  0  0  0  0
   -8.3526  -49.2002   21.7238 H   0  0  0  0  0  0  0  0  0  0  0  0
   -6.7495  -49.9843   21.8260 H   0  0  0  0  0  0  0  0  0  0  0  0
   -7.9917  -48.1650   24.0060 H   0  0  0  0  0  0  0  0  0  0  0  0
    0.3382  -54.2980   23.4630 H   0  0  0  0  0  0  0  0  0  0  0  0
    2.1416  -54.1028   23.2348 H   0  0  0  0  0  0  0  0  0  0  0  0
    1.0268  -54.7335   20.7713 H   0  0  0  0  0  0  0  0  0  0  0  0
    0.7056  -53.5217   18.5714 H   0  0  0  0  0  0  0  0  0  0  0  0
    0.4776  -51.0003   18.5365 H   0  0  0  0  0  0  0  0  0  0  0  0
    0.8917  -50.9021   22.9013 H   0  0  0  0  0  0  0  0  0  0  0  0
  1  2  2  0  0  0  0
  2  3  1  0  0  0  0
  2 23  1  0  0  0  0
  3 14  1  0  0  0  0
  3  4  2  0  0  0  0
  4  5  1  0  0  0  0
  5  6  2  0  0  0  0
  5 24  1  0  0  0  0
  6  1  1  0  0  0  0
  7  8  1  0  0  0  0
  7 25  1  0  0  0  0
  8  9  2  0  0  0  0
  8 10  1  0  0  0  0
 10  1  1  0  0  0  0
 10 26  1  0  0  0  0
 11  7  1  0  0  0  0
 11 27  1  0  0  0  0
 11 28  1  0  0  0  0
 12 13  2  0  0  0  0
 12 29  1  0  0  0  0
 12 30  1  0  0  0  0
 13 11  1  0  0  0  0
 13 31  1  0  0  0  0
 14 15  1  0  0  0  0
 15 16  1  0  0  0  0
 15 32  1  0  0  0  0
 15 33  1  0  0  0  0
 16 17  2  0  0  0  0
 17 18  1  0  0  0  0
 17 34  1  0  0  0  0
 18 19  2  0  0  0  0
 18 35  1  0  0  0  0
 19 20  1  0  0  0  0
 19 36  1  0  0  0  0
 20 21  1  0  0  0  0
 20 22  2  0  0  0  0
 22 16  1  0  0  0  0
 22 37  1  0  0  0  0
M  END
>  <minimizedAffinity>
-6.74115

$$$$

 OpenBabel09092411003D

 37 38  0  0  0  0  0  0  0  0999 V2000
   -1.7107  -52.3042   26.2361 C   0  0  0  0  0  0  0  0  0  0  0  0
   -0.8055  -52.7509   25.1266 C   0  0  0  0  0  0  0  0  0  0  0  0
    0.6720  -52.8596   25.3619 C   0  0  0  0  0  0  0  0  0  0  0  0
    1.2441  -52.5218   26.7066 N   0  0  0  0  0  0  0  0  0  0  0  0
    0.3389  -52.0751   27.8161 C   0  0  0  0  0  0  0  0  0  0  0  0
   -1.1386  -51.9664   27.5808 N   0  0  0  0  0  0  0  0  0  0  0  0
   -5.2098  -50.9786   24.9134 N   0  0  0  0  0  0  0  0  0  0  0  0
   -3.7324  -51.0874   25.1487 C   0  0  0  0  0  0  0  0  0  0  0  0
   -2.7991  -50.0880   24.5320 O   0  0  0  0  0  0  0  0  0  0  0  0
   -3.1882  -52.1954   26.0008 N   0  0  0  0  0  0  0  0  0  0  0  0
   -5.7539  -49.8704   24.0614 C   0  0  0  0  0  0  0  0  0  0  0  0
   -4.9605  -50.3745   21.6393 C   0  0  0  0  0  0  0  0  0  0  0  0
   -6.0699  -50.1212   22.6166 C   0  0  0  0  0  0  0  0  0  0  0  0
    1.5772  -53.3063   24.2523 O   0  0  0  0  0  0  0  0  0  0  0  0
    0.9941  -53.8080   22.9646 C   0  0  0  0  0  0  0  0  0  0  0  0
    0.9738  -52.9215   21.7548 C   0  0  0  0  0  0  0  0  0  0  0  0
    1.3912  -53.4643   20.4202 C   0  0  0  0  0  0  0  0  0  0  0  0
    1.3708  -52.5777   19.2103 C   0  0  0  0  0  0  0  0  0  0  0  0
    0.9331  -51.1484   19.3351 C   0  0  0  0  0  0  0  0  0  0  0  0
    0.5157  -50.6057   20.6698 C   0  0  0  0  0  0  0  0  0  0  0  0
    0.0780  -49.1764   20.7946 Cl  0  0  0  0  0  0  0  0  0  0  0  0
    0.5361  -51.4922   21.8796 C   0  0  0  0  0  0  0  0  0  0  0  0
   -1.1992  -52.9834   24.2014 H   0  0  0  0  0  0  0  0  0  0  0  0
    0.7326  -51.8426   28.7413 H   0  0  0  0  0  0  0  0  0  0  0  0
   -5.8224  -51.6345   25.3181 H   0  0  0  0  0  0  0  0  0  0  0  0
   -3.8007  -52.8513   26.4057 H   0  0  0  0  0  0  0  0  0  0  0  0
   -6.6615  -49.5425   24.5237 H   0  0  0  0  0  0  0  0  0  0  0  0
   -4.9438  -49.1727   24.0185 H   0  0  0  0  0  0  0  0  0  0  0  0
   -5.1778  -50.5470   20.6453 H   0  0  0  0  0  0  0  0  0  0  0  0
   -3.9799  -50.3762   21.9609 H   0  0  0  0  0  0  0  0  0  0  0  0
   -7.0505  -50.1195   22.2950 H   0  0  0  0  0  0  0  0  0  0  0  0
   -0.0217  -54.0752   23.1689 H   0  0  0  0  0  0  0  0  0  0  0  0
    1.6623  -54.5945   22.6820 H   0  0  0  0  0  0  0  0  0  0  0  0
    1.6924  -54.4476   20.3344 H   0  0  0  0  0  0  0  0  0  0  0  0
    1.6579  -52.9511   18.2921 H   0  0  0  0  0  0  0  0  0  0  0  0
    0.9191  -50.5384   18.5028 H   0  0  0  0  0  0  0  0  0  0  0  0
    0.2490  -51.1188   22.7978 H   0  0  0  0  0  0  0  0  0  0  0  0
  1  2  2  0  0  0  0
  2  3  1  0  0  0  0
  2 23  1  0  0  0  0
  3 14  1  0  0  0  0
  3  4  2  0  0  0  0
  4  5  1  0  0  0  0
  5  6  2  0  0  0  0
  5 24  1  0  0  0  0
  6  1  1  0  0  0  0
  7  8  1  0  0  0  0
  7 25  1  0  0  0  0
  8  9  2  0  0  0  0
  8 10  1  0  0  0  0
 10  1  1  0  0  0  0
 10 26  1  0  0  0  0
 11  7  1  0  0  0  0
 11 27  1  0  0  0  0
 11 28  1  0  0  0  0
 12 13  2  0  0  0  0
 12 29  1  0  0  0  0
 12 30  1  0  0  0  0
 13 11  1  0  0  0  0
 13 31  1  0  0  0  0
 14 15  1  0  0  0  0
 15 16  1  0  0  0  0
 15 32  1  0  0  0  0
 15 33  1  0  0  0  0
 16 17  2  0  0  0  0
 17 18  1  0  0  0  0
 17 34  1  0  0  0  0
 18 19  2  0  0  0  0
 18 35  1  0  0  0  0
 19 20  1  0  0  0  0
 19 36  1  0  0  0  0
 20 21  1  0  0  0  0
 20 22  2  0  0  0  0
 22 16  1  0  0  0  0
 22 37  1  0  0  0  0
M  END
>  <minimizedAffinity>
-6.65927

$$$$

 OpenBabel09092411003D

 52 54  0  0  0  0  0  0  0  0999 V2000
    0.7594  -52.0875   24.3283 C   0  0  0  0  0  0  0  0  0  0  0  0
    1.7730  -51.5472   25.2931 C   0  0  0  0  0  0  0  0  0  0  0  0
    1.4070  -51.3527   26.7347 C   0  0  0  0  0  0  0  0  0  0  0  0
    0.0274  -51.6985   27.2115 C   0  0  0  0  0  0  0  0  0  0  0  0
   -0.9861  -52.2387   26.2466 C   0  0  0  0  0  0  0  0  0  0  0  0
   -0.6201  -52.4332   24.8050 C   0  0  0  0  0  0  0  0  0  0  0  0
    1.7160  -51.9092   17.5236 N   0  3  0  0  0  0  0  0  0  0  0  0
    0.8424  -50.7585   17.9270 C   0  0  0  0  0  0  0  0  0  0  0  0
    0.4764  -50.5640   19.3686 C   0  0  0  0  0  0  0  0  0  0  0  0
    0.9839  -51.5202   20.4068 N   0  0  0  0  0  0  0  0  0  0  0  0
    0.6179  -51.3257   21.8484 C   0  0  0  0  0  0  0  0  0  0  0  0
   -0.2557  -50.1751   22.2518 O   0  0  0  0  0  0  0  0  0  0  0  0
    1.1255  -52.2819   22.8867 N   0  0  0  0  0  0  0  0  0  0  0  0
    1.8575  -52.6709   20.0035 C   0  0  0  0  0  0  0  0  0  0  0  0
    2.2235  -52.8654   18.5619 C   0  0  0  0  0  0  0  0  0  0  0  0
    2.0820  -52.1036   16.0820 C   0  0  0  0  0  0  0  0  0  0  0  0
    4.6045  -52.5636   15.6630 C   0  0  0  0  0  0  0  0  0  0  0  0
    3.4197  -51.6474   15.5797 C   0  0  0  0  0  0  0  0  0  0  0  0
   -2.3656  -52.5845   26.7234 O   0  0  0  0  0  0  0  0  0  0  0  0
   -3.4218  -51.5219   26.7977 C   0  0  0  0  0  0  0  0  0  0  0  0
   -3.2624  -50.2502   26.0182 C   0  0  0  0  0  0  0  0  0  0  0  0
   -3.6555  -50.2031   24.5714 C   0  0  0  0  0  0  0  0  0  0  0  0
   -3.4961  -48.9315   23.7919 C   0  0  0  0  0  0  0  0  0  0  0  0
   -2.9436  -47.7070   24.4592 C   0  0  0  0  0  0  0  0  0  0  0  0
   -2.7842  -46.4354   23.6797 F   0  0  0  0  0  0  0  0  0  0  0  0
   -2.5504  -47.7541   25.9060 C   0  0  0  0  0  0  0  0  0  0  0  0
   -2.7098  -49.0258   26.6855 C   0  0  0  0  0  0  0  0  0  0  0  0
    2.7221  -51.3093   24.9650 H   0  0  0  0  0  0  0  0  0  0  0  0
    2.1043  -50.9810   27.3985 H   0  0  0  0  0  0  0  0  0  0  0  0
   -0.2244  -51.5647   28.2033 H   0  0  0  0  0  0  0  0  0  0  0  0
   -1.3174  -52.8049   24.1412 H   0  0  0  0  0  0  0  0  0  0  0  0
    2.2883  -52.4458   16.8717 H   0  0  0  0  0  0  0  0  0  0  0  0
   -0.0753  -50.8631   17.3868 H   0  0  0  0  0  0  0  0  0  0  0  0
    1.4467  -49.9028   17.7091 H   0  0  0  0  0  0  0  0  0  0  0  0
   -0.5920  -50.5885   19.4221 H   0  0  0  0  0  0  0  0  0  0  0  0
    0.9607  -49.6445   19.6234 H   0  0  0  0  0  0  0  0  0  0  0  0
    1.6990  -53.0371   22.6220 H   0  0  0  0  0  0  0  0  0  0  0  0
    1.3580  -53.5632   20.3185 H   0  0  0  0  0  0  0  0  0  0  0  0
    2.7947  -52.4423   20.4665 H   0  0  0  0  0  0  0  0  0  0  0  0
    1.8746  -53.8378   18.2831 H   0  0  0  0  0  0  0  0  0  0  0  0
    3.2807  -52.7006   18.5522 H   0  0  0  0  0  0  0  0  0  0  0  0
    2.0205  -53.1538   15.8866 H   0  0  0  0  0  0  0  0  0  0  0  0
    1.3950  -51.4661   15.5657 H   0  0  0  0  0  0  0  0  0  0  0  0
    5.5248  -52.2497   15.3174 H   0  0  0  0  0  0  0  0  0  0  0  0
    4.4993  -53.5079   16.0659 H   0  0  0  0  0  0  0  0  0  0  0  0
    3.5249  -50.7032   15.1768 H   0  0  0  0  0  0  0  0  0  0  0  0
   -3.5087  -51.2442   27.8274 H   0  0  0  0  0  0  0  0  0  0  0  0
   -4.2704  -51.9861   26.3402 H   0  0  0  0  0  0  0  0  0  0  0  0
   -4.0356  -51.0456   24.1123 H   0  0  0  0  0  0  0  0  0  0  0  0
   -3.7666  -48.8991   22.7965 H   0  0  0  0  0  0  0  0  0  0  0  0
   -2.1702  -46.9117   26.3651 H   0  0  0  0  0  0  0  0  0  0  0  0
   -2.4393  -49.0583   27.6809 H   0  0  0  0  0  0  0  0  0  0  0  0
  1  2  2  0  0  0  0
  2  3  1  0  0  0  0
  2 28  1  0  0  0  0
  3  4  2  0  0  0  0
  3 29  1  0  0  0  0
  4  5  1  0  0  0  0
  4 30  1  0  0  0  0
  5 19  1  0  0  0  0
  5  6  2  0  0  0  0
  6  1  1  0  0  0  0
  6 31  1  0  0  0  0
  7  8  1  0  0  0  0
  7 32  1  0  0  0  0
  8  9  1  0  0  0  0
  8 33  1  0  0  0  0
  8 34  1  0  0  0  0
  9 10  1  0  0  0  0
  9 35  1  0  0  0  0
  9 36  1  0  0  0  0
 10 11  1  0  0  0  0
 10 14  1  0  0  0  0
 11 12  2  0  0  0  0
 11 13  1  0  0  0  0
 13  1  1  0  0  0  0
 13 37  1  0  0  0  0
 14 15  1  0  0  0  0
 14 38  1  0  0  0  0
 14 39  1  0  0  0  0
 15  7  1  0  0  0  0
 15 40  1  0  0  0  0
 15 41  1  0  0  0  0
 16  7  1  0  0  0  0
 16 42  1  0  0  0  0
 16 43  1  0  0  0  0
 17 18  2  0  0  0  0
 17 44  1  0  0  0  0
 17 45  1  0  0  0  0
 18 16  1  0  0  0  0
 18 46  1  0  0  0  0
 19 20  1  0  0  0  0
 20 21  1  0  0  0  0
 20 47  1  0  0  0  0
 20 48  1  0  0  0  0
 21 22  2  0  0  0  0
 22 23  1  0  0  0  0
 22 49  1  0  0  0  0
 23 24  2  0  0  0  0
 23 50  1  0  0  0  0
 24 25  1  0  0  0  0
 24 26  1  0  0  0  0
 26 27  2  0  0  0  0
 26 51  1  0  0  0  0
 27 21  1  0  0  0  0
 27 52  1  0  0  0  0
M  CHG  1   7   1
M  END
>  <minimizedAffinity>
-7.69295

$$$$

 OpenBabel09092411003D

 41 43  0  0  0  0  0  0  0  0999 V2000
    0.9041  -51.4059   24.4802 C   0  0  0  0  0  0  0  0  0  0  0  0
    2.1100  -51.1634   25.3388 C   0  0  0  0  0  0  0  0  0  0  0  0
    2.0720  -51.5050   26.7989 C   0  0  0  0  0  0  0  0  0  0  0  0
    0.8282  -52.0891   27.4004 C   0  0  0  0  0  0  0  0  0  0  0  0
   -0.3776  -52.3316   26.5418 C   0  0  0  0  0  0  0  0  0  0  0  0
   -0.3397  -51.9901   25.0818 C   0  0  0  0  0  0  0  0  0  0  0  0
    1.1270  -52.1491   22.0007 C   0  0  0  0  0  0  0  0  0  0  0  0
    1.2740  -53.5753   22.4413 O   0  0  0  0  0  0  0  0  0  0  0  0
    0.9421  -51.0644   23.0201 N   0  0  0  0  0  0  0  0  0  0  0  0
   -0.2427  -49.0392   18.0697 C   0  0  0  0  0  0  0  0  0  0  0  0
    0.4801  -50.2525   18.5751 C   0  0  0  0  0  0  0  0  0  0  0  0
    0.4422  -50.5941   20.0352 C   0  0  0  0  0  0  0  0  0  0  0  0
    1.1650  -51.8075   20.5405 C   0  0  0  0  0  0  0  0  0  0  0  0
    1.9257  -52.6792   19.5859 C   0  0  0  0  0  0  0  0  0  0  0  0
    1.9636  -52.3375   18.1258 N   0  0  0  0  0  0  0  0  0  0  0  0
    1.2408  -51.1242   17.6204 N   0  0  0  0  0  0  0  0  0  0  0  0
   -1.6214  -52.9157   27.1433 O   0  0  0  0  0  0  0  0  0  0  0  0
   -2.7357  -52.0140   27.5851 C   0  0  0  0  0  0  0  0  0  0  0  0
   -3.4649  -51.1743   26.5786 C   0  0  0  0  0  0  0  0  0  0  0  0
   -3.5148  -49.6839   26.7404 C   0  0  0  0  0  0  0  0  0  0  0  0
   -4.2440  -48.8441   25.7338 C   0  0  0  0  0  0  0  0  0  0  0  0
   -4.9233  -49.4948   24.5654 C   0  0  0  0  0  0  0  0  0  0  0  0
   -4.8734  -50.9853   24.4036 C   0  0  0  0  0  0  0  0  0  0  0  0
   -5.5527  -51.6360   23.2352 F   0  0  0  0  0  0  0  0  0  0  0  0
   -4.1442  -51.8250   25.4102 C   0  0  0  0  0  0  0  0  0  0  0  0
    2.9657  -50.7616   24.9250 H   0  0  0  0  0  0  0  0  0  0  0  0
    2.9016  -51.3382   27.3896 H   0  0  0  0  0  0  0  0  0  0  0  0
    0.8021  -52.3241   28.4049 H   0  0  0  0  0  0  0  0  0  0  0  0
   -1.1693  -52.1570   24.4911 H   0  0  0  0  0  0  0  0  0  0  0  0
    0.8457  -50.1283   22.7308 H   0  0  0  0  0  0  0  0  0  0  0  0
   -0.7247  -48.5449   18.8872 H   0  0  0  0  0  0  0  0  0  0  0  0
   -0.9764  -49.3354   17.3494 H   0  0  0  0  0  0  0  0  0  0  0  0
    0.4574  -48.3719   17.6120 H   0  0  0  0  0  0  0  0  0  0  0  0
   -0.0811  -49.9944   20.6921 H   0  0  0  0  0  0  0  0  0  0  0  0
    2.4230  -53.5140   19.9336 H   0  0  0  0  0  0  0  0  0  0  0  0
   -2.3210  -51.3411   28.3063 H   0  0  0  0  0  0  0  0  0  0  0  0
   -3.4855  -52.6978   27.9244 H   0  0  0  0  0  0  0  0  0  0  0  0
   -3.0474  -49.2362   27.5443 H   0  0  0  0  0  0  0  0  0  0  0  0
   -4.2783  -47.8187   25.8451 H   0  0  0  0  0  0  0  0  0  0  0  0
   -5.4250  -48.9171   23.8729 H   0  0  0  0  0  0  0  0  0  0  0  0
   -4.1099  -52.8504   25.2989 H   0  0  0  0  0  0  0  0  0  0  0  0
  1  2  2  0  0  0  0
  2  3  1  0  0  0  0
  2 26  1  0  0  0  0
  3  4  2  0  0  0  0
  3 27  1  0  0  0  0
  4  5  1  0  0  0  0
  4 28  1  0  0  0  0
  5 17  1  0  0  0  0
  5  6  2  0  0  0  0
  6  1  1  0  0  0  0
  6 29  1  0  0  0  0
  7  8  2  0  0  0  0
  7  9  1  0  0  0  0
  9  1  1  0  0  0  0
  9 30  1  0  0  0  0
 10 11  1  0  0  0  0
 10 31  1  0  0  0  0
 10 32  1  0  0  0  0
 10 33  1  0  0  0  0
 11 12  2  0  0  0  0
 12 13  1  0  0  0  0
 12 34  1  0  0  0  0
 13  7  1  0  0  0  0
 13 14  2  0  0  0  0
 14 15  1  0  0  0  0
 14 35  1  0  0  0  0
 15 16  2  0  0  0  0
 16 11  1  0  0  0  0
 17 18  1  0  0  0  0
 18 19  1  0  0  0  0
 18 36  1  0  0  0  0
 18 37  1  0  0  0  0
 19 20  2  0  0  0  0
 20 21  1  0  0  0  0
 20 38  1  0  0  0  0
 21 22  2  0  0  0  0
 21 39  1  0  0  0  0
 22 23  1  0  0  0  0
 22 40  1  0  0  0  0
 23 24  1  0  0  0  0
 23 25  2  0  0  0  0
 25 19  1  0  0  0  0
 25 41  1  0  0  0  0
M  END
>  <minimizedAffinity>
-7.59923

$$$$

 OpenBabel09092411003D

 40 41  0  0  0  0  0  0  0  0999 V2000
   -1.7022  -50.9559   21.3972 C   0  0  0  0  0  0  0  0  0  0  0  0
   -1.3261  -51.6766   22.6578 C   0  0  0  0  0  0  0  0  0  0  0  0
   -2.3754  -51.9953   23.6812 C   0  0  0  0  0  0  0  0  0  0  0  0
   -3.8009  -51.5932   23.4440 N   0  0  0  0  0  0  0  0  0  0  0  0
   -4.1770  -50.8725   22.1835 C   0  0  0  0  0  0  0  0  0  0  0  0
   -3.1277  -50.5538   21.1601 N   0  0  0  0  0  0  0  0  0  0  0  0
   -0.6529  -50.6373   20.3738 N   0  0  0  0  0  0  0  0  0  0  0  0
    0.7415  -51.1644   20.5402 C   0  0  0  0  0  0  0  0  0  0  0  0
    1.3632  -51.9958   19.4576 C   0  0  2  0  0  0  0  0  0  0  0  0
    0.7028  -51.1378   18.4194 C   0  0  0  0  0  0  0  0  0  0  0  0
    1.9849  -52.8273   18.3749 O   0  0  0  0  0  0  0  0  0  0  0  0
    1.2206  -53.8735   21.2475 C   0  0  0  0  0  0  0  0  0  0  0  0
    2.0236  -52.8538   20.4957 C   0  0  0  0  0  0  0  0  0  0  0  0
   -1.9992  -52.7160   24.9418 O   0  0  0  0  0  0  0  0  0  0  0  0
   -1.6490  -51.9372   26.1750 C   0  0  0  0  0  0  0  0  0  0  0  0
   -0.2185  -51.8304   26.6135 C   0  0  0  0  0  0  0  0  0  0  0  0
    0.2002  -52.3768   27.9463 C   0  0  0  0  0  0  0  0  0  0  0  0
    1.6307  -52.2699   28.3848 C   0  0  0  0  0  0  0  0  0  0  0  0
    2.6425  -51.6168   27.4906 C   0  0  0  0  0  0  0  0  0  0  0  0
    2.2238  -51.0704   26.1579 C   0  0  0  0  0  0  0  0  0  0  0  0
    3.2356  -50.4173   25.2636 F   0  0  0  0  0  0  0  0  0  0  0  0
    0.7934  -51.1772   25.7193 C   0  0  0  0  0  0  0  0  0  0  0  0
   -0.3453  -51.9532   22.8210 H   0  0  0  0  0  0  0  0  0  0  0  0
   -5.1578  -50.5959   22.0203 H   0  0  0  0  0  0  0  0  0  0  0  0
   -0.8794  -50.0822   19.5929 H   0  0  0  0  0  0  0  0  0  0  0  0
    1.3777  -50.3158   20.6817 H   0  0  0  0  0  0  0  0  0  0  0  0
    0.6491  -51.8513   21.3554 H   0  0  0  0  0  0  0  0  0  0  0  0
    0.9639  -51.4930   17.4444 H   0  0  0  0  0  0  0  0  0  0  0  0
    1.0325  -50.1260   18.5305 H   0  0  0  0  0  0  0  0  0  0  0  0
   -0.3591  -51.1824   18.5427 H   0  0  0  0  0  0  0  0  0  0  0  0
    2.9124  -52.5675   18.2600 H   0  0  0  0  0  0  0  0  0  0  0  0
    1.6750  -54.4638   21.9617 H   0  0  0  0  0  0  0  0  0  0  0  0
    0.2137  -53.9848   21.0505 H   0  0  0  0  0  0  0  0  0  0  0  0
    3.0305  -52.7425   20.6927 H   0  0  0  0  0  0  0  0  0  0  0  0
   -2.1880  -52.3825   26.9850 H   0  0  0  0  0  0  0  0  0  0  0  0
   -1.9010  -50.9315   25.9106 H   0  0  0  0  0  0  0  0  0  0  0  0
   -0.4959  -52.8262   28.5615 H   0  0  0  0  0  0  0  0  0  0  0  0
    1.9188  -52.6457   29.3018 H   0  0  0  0  0  0  0  0  0  0  0  0
    3.6267  -51.5434   27.7923 H   0  0  0  0  0  0  0  0  0  0  0  0
    0.5054  -50.8013   24.8024 H   0  0  0  0  0  0  0  0  0  0  0  0
  1  2  2  0  0  0  0
  2  3  1  0  0  0  0
  2 23  1  0  0  0  0
  3 14  1  0  0  0  0
  3  4  2  0  0  0  0
  4  5  1  0  0  0  0
  5  6  2  0  0  0  0
  5 24  1  0  0  0  0
  6  1  1  0  0  0  0
  7  1  1  0  0  0  0
  7 25  1  0  0  0  0
  8  7  1  0  0  0  0
  8 26  1  0  0  0  0
  8 27  1  0  0  0  0
  9 13  1  6  0  0  0
  9 10  1  0  0  0  0
  9 11  1  0  0  0  0
  9  8  1  0  0  0  0
 10 28  1  0  0  0  0
 10 29  1  0  0  0  0
 10 30  1  0  0  0  0
 11 31  1  0  0  0  0
 12 13  2  0  0  0  0
 12 32  1  0  0  0  0
 12 33  1  0  0  0  0
 13 34  1  0  0  0  0
 14 15  1  0  0  0  0
 15 16  1  0  0  0  0
 15 35  1  0  0  0  0
 15 36  1  0  0  0  0
 16 17  2  0  0  0  0
 17 18  1  0  0  0  0
 17 37  1  0  0  0  0
 18 19  2  0  0  0  0
 18 38  1  0  0  0  0
 19 20  1  0  0  0  0
 19 39  1  0  0  0  0
 20 21  1  0  0  0  0
 20 22  2  0  0  0  0
 22 16  1  0  0  0  0
 22 40  1  0  0  0  0
M  END
>  <minimizedAffinity>
-6.81366

$$$$

 OpenBabel09092411003D

 49 51  0  0  0  0  0  0  0  0999 V2000
    1.2168  -52.2649   21.2831 C   0  0  1  0  0  0  0  0  0  0  0  0
    2.1171  -53.0509   20.3767 C   0  0  0  0  0  0  0  0  0  0  0  0
    2.1218  -52.7763   18.9021 C   0  0  0  0  0  0  0  0  0  0  0  0
    1.2261  -51.7157   18.3339 C   0  0  0  0  0  0  0  0  0  0  0  0
    0.3258  -50.9296   19.2403 N   0  3  2  0  0  0  0  0  0  0  0  0
    0.3211  -51.2043   20.7149 C   0  0  0  0  0  0  0  0  0  0  0  0
    1.2919  -53.9514   23.2580 O   0  0  0  0  0  0  0  0  0  0  0  0
    1.2120  -52.5395   22.7578 C   0  0  0  0  0  0  0  0  0  0  0  0
    1.1275  -51.4022   23.7322 N   0  0  0  0  0  0  0  0  0  0  0  0
    1.1228  -51.6768   25.2069 C   0  0  0  0  0  0  0  0  0  0  0  0
    2.3378  -51.3692   26.0309 C   0  0  0  0  0  0  0  0  0  0  0  0
    2.3330  -51.6438   27.5055 C   0  0  0  0  0  0  0  0  0  0  0  0
    1.1133  -52.2260   28.1561 C   0  0  0  0  0  0  0  0  0  0  0  0
   -0.1017  -52.5337   27.3320 C   0  0  0  0  0  0  0  0  0  0  0  0
   -1.3214  -53.1159   27.9826 Cl  0  0  0  0  0  0  0  0  0  0  0  0
   -0.0969  -52.2591   25.8574 C   0  0  0  0  0  0  0  0  0  0  0  0
   -0.5699  -49.8690   18.6720 C   0  0  0  0  0  0  0  0  0  0  0  0
   -1.8986  -50.2444   18.0861 C   0  0  0  0  0  0  0  0  0  0  0  0
   -2.7302  -51.3110   18.7349 O   0  0  0  0  0  0  0  0  0  0  0  0
   -2.3960  -49.5531   16.8512 N   0  0  0  0  0  0  0  0  0  0  0  0
   -1.6793  -48.4733   16.0960 C   0  0  0  0  0  0  0  0  0  0  0  0
   -2.5377  -48.0731   14.9328 C   0  0  0  0  0  0  0  0  0  0  0  0
   -3.7850  -48.9057   14.9691 C   0  0  0  0  0  0  0  0  0  0  0  0
   -3.6974  -49.8204   16.1548 C   0  0  0  0  0  0  0  0  0  0  0  0
    2.2759  -52.2163   21.1387 H   0  0  0  0  0  0  0  0  0  0  0  0
    1.8547  -54.0811   20.4982 H   0  0  0  0  0  0  0  0  0  0  0  0
    3.0974  -52.7533   20.6854 H   0  0  0  0  0  0  0  0  0  0  0  0
    1.8613  -53.6934   18.4163 H   0  0  0  0  0  0  0  0  0  0  0  0
    3.1037  -52.3886   18.7272 H   0  0  0  0  0  0  0  0  0  0  0  0
    0.5967  -52.1960   17.6141 H   0  0  0  0  0  0  0  0  0  0  0  0
    1.9143  -50.9803   17.9727 H   0  0  0  0  0  0  0  0  0  0  0  0
    0.6928  -50.0017   19.4518 H   0  0  0  0  0  0  0  0  0  0  0  0
   -0.6810  -51.4740   20.9757 H   0  0  0  0  0  0  0  0  0  0  0  0
    0.7124  -50.3012   21.1346 H   0  0  0  0  0  0  0  0  0  0  0  0
    1.0751  -50.4755   23.4039 H   0  0  0  0  0  0  0  0  0  0  0  0
    3.1770  -50.9687   25.5833 H   0  0  0  0  0  0  0  0  0  0  0  0
    3.1689  -51.4322   28.0725 H   0  0  0  0  0  0  0  0  0  0  0  0
    1.1100  -52.4149   29.1707 H   0  0  0  0  0  0  0  0  0  0  0  0
   -0.9328  -52.4708   25.2904 H   0  0  0  0  0  0  0  0  0  0  0  0
   -0.0172  -49.3809   17.8966 H   0  0  0  0  0  0  0  0  0  0  0  0
   -0.8350  -49.2858   19.5290 H   0  0  0  0  0  0  0  0  0  0  0  0
   -0.7381  -48.8402   15.7434 H   0  0  0  0  0  0  0  0  0  0  0  0
   -1.4992  -47.6318   16.7319 H   0  0  0  0  0  0  0  0  0  0  0  0
   -2.0120  -48.2463   14.0170 H   0  0  0  0  0  0  0  0  0  0  0  0
   -2.7830  -47.0333   14.9922 H   0  0  0  0  0  0  0  0  0  0  0  0
   -3.8632  -49.4820   14.0709 H   0  0  0  0  0  0  0  0  0  0  0  0
   -4.6485  -48.2785   15.0465 H   0  0  0  0  0  0  0  0  0  0  0  0
   -3.7332  -50.8395   15.8307 H   0  0  0  0  0  0  0  0  0  0  0  0
   -4.5174  -49.6465   16.8198 H   0  0  0  0  0  0  0  0  0  0  0  0
  1  8  1  0  0  0  0
  1  2  1  0  0  0  0
  1 25  1  1  0  0  0
  2  3  1  0  0  0  0
  2 26  1  0  0  0  0
  2 27  1  0  0  0  0
  3  4  1  0  0  0  0
  3 28  1  0  0  0  0
  3 29  1  0  0  0  0
  4  5  1  0  0  0  0
  4 30  1  0  0  0  0
  4 31  1  0  0  0  0
  5 17  1  0  0  0  0
  5  6  1  0  0  0  0
  5 32  1  1  0  0  0
  6  1  1  0  0  0  0
  6 33  1  0  0  0  0
  6 34  1  0  0  0  0
  7  8  2  0  0  0  0
  8  9  1  0  0  0  0
  9 10  1  0  0  0  0
  9 35  1  0  0  0  0
 10 11  2  0  0  0  0
 11 12  1  0  0  0  0
 11 36  1  0  0  0  0
 12 13  2  0  0  0  0
 12 37  1  0  0  0  0
 13 14  1  0  0  0  0
 13 38  1  0  0  0  0
 14 15  1  0  0  0  0
 14 16  2  0  0  0  0
 16 10  1  0  0  0  0
 16 39  1  0  0  0  0
 17 18  1  0  0  0  0
 17 40  1  0  0  0  0
 17 41  1  0  0  0  0
 18 19  2  0  0  0  0
 18 20  1  0  0  0  0
 20 21  1  0  0  0  0
 21 22  1  0  0  0  0
 21 42  1  0  0  0  0
 21 43  1  0  0  0  0
 22 23  1  0  0  0  0
 22 44  1  0  0  0  0
 22 45  1  0  0  0  0
 23 24  1  0  0  0  0
 23 46  1  0  0  0  0
 23 47  1  0  0  0  0
 24 20  1  0  0  0  0
 24 48  1  0  0  0  0
 24 49  1  0  0  0  0
M  CHG  1   5   1
M  END
>  <minimizedAffinity>
-8.28152

$$$$

 OpenBabel09092411003D

 67 70  0  0  0  0  0  0  0  0999 V2000
   -1.0921  -52.0107   26.4370 N   0  3  1  0  0  0  0  0  0  0  0  0
   -0.4886  -52.2725   27.7852 C   0  0  0  0  0  0  0  0  0  0  0  0
    0.8949  -52.1998   28.3601 C   0  0  0  0  0  0  0  0  0  0  0  0
    2.2480  -51.8353   27.8252 C   0  0  0  0  0  0  0  0  0  0  0  0
    2.7781  -51.3924   26.4936 C   0  0  0  0  0  0  0  0  0  0  0  0
    2.1745  -51.1307   25.1455 C   0  0  0  0  0  0  0  0  0  0  0  0
    0.7910  -51.2034   24.5706 C   0  0  2  0  0  0  0  0  0  0  0  0
   -0.5621  -51.5679   25.1055 C   0  0  0  0  0  0  0  0  0  0  0  0
    0.7513  -50.8221   23.1204 N   0  0  0  0  0  0  0  0  0  0  0  0
    0.9039  -51.8755   22.0635 C   0  0  0  0  0  0  0  0  0  0  0  0
    1.0962  -53.3102   22.4568 O   0  0  0  0  0  0  0  0  0  0  0  0
    0.8641  -51.4942   20.6133 C   0  0  0  0  0  0  0  0  0  0  0  0
    1.4086  -52.4312   19.5763 N   0  0  0  0  0  0  0  0  0  0  0  0
    1.3689  -52.0499   18.1261 C   0  0  0  0  0  0  0  0  0  0  0  0
    0.7847  -50.7316   17.7129 C   0  0  0  0  0  0  0  0  0  0  0  0
    0.2401  -49.7945   18.7500 C   0  0  0  0  0  0  0  0  0  0  0  0
   -0.3441  -48.4762   18.3369 C   0  0  0  0  0  0  0  0  0  0  0  0
   -0.8886  -47.5392   19.3739 C   0  0  0  0  0  0  0  0  0  0  0  0
   -0.8488  -47.9205   20.8241 C   0  0  0  0  0  0  0  0  0  0  0  0
   -0.2646  -49.2388   21.2372 N   0  0  0  0  0  0  0  0  0  0  0  0
    0.2799  -50.1758   20.2002 C   0  0  0  0  0  0  0  0  0  0  0  0
   -2.5732  -52.2473   26.4154 C   0  0  0  0  0  0  0  0  0  0  0  0
   -4.2669  -47.6291   27.5512 C   0  0  0  0  0  0  0  0  0  0  0  0
   -4.4029  -48.7064   26.5163 N   0  3  1  0  0  0  0  0  0  0  0  0
   -5.3426  -48.4082   25.3859 C   0  0  0  0  0  0  0  0  0  0  0  0
   -5.6926  -49.2694   24.2087 C   0  0  0  0  0  0  0  0  0  0  0  0
   -5.1893  -50.6416   23.8712 C   0  0  0  0  0  0  0  0  0  0  0  0
   -4.2118  -51.4914   24.6277 C   0  0  0  0  0  0  0  0  0  0  0  0
   -3.4960  -51.1791   25.9082 C   0  0  1  0  0  0  0  0  0  0  0  0
   -3.5810  -49.9396   26.7488 C   0  0  0  0  0  0  0  0  0  0  0  0
   -0.0850  -51.8497   26.4517 H   0  0  0  0  0  0  0  0  0  0  0  0
   -0.7719  -53.2861   27.9783 H   0  0  0  0  0  0  0  0  0  0  0  0
   -0.8146  -51.3475   28.2130 H   0  0  0  0  0  0  0  0  0  0  0  0
    1.0477  -53.1905   28.7344 H   0  0  0  0  0  0  0  0  0  0  0  0
    0.7384  -51.2658   28.8582 H   0  0  0  0  0  0  0  0  0  0  0  0
    2.8273  -52.7111   28.0309 H   0  0  0  0  0  0  0  0  0  0  0  0
    2.2573  -50.8568   28.2579 H   0  0  0  0  0  0  0  0  0  0  0  0
    3.5245  -52.1285   26.2796 H   0  0  0  0  0  0  0  0  0  0  0  0
    2.8524  -50.3596   26.7631 H   0  0  0  0  0  0  0  0  0  0  0  0
    2.7307  -51.7844   24.5065 H   0  0  0  0  0  0  0  0  0  0  0  0
    2.1748  -50.0658   25.2499 H   0  0  0  0  0  0  0  0  0  0  0  0
    0.8193  -51.4754   25.6051 H   0  0  0  0  0  0  0  0  0  0  0  0
   -0.8685  -52.3594   24.4540 H   0  0  0  0  0  0  0  0  0  0  0  0
   -0.8971  -50.5566   25.2049 H   0  0  0  0  0  0  0  0  0  0  0  0
    0.6251  -49.8805   22.8623 H   0  0  0  0  0  0  0  0  0  0  0  0
    1.7435  -52.6946   17.4126 H   0  0  0  0  0  0  0  0  0  0  0  0
    0.7574  -50.4693   16.7152 H   0  0  0  0  0  0  0  0  0  0  0  0
   -0.3714  -48.2139   17.3392 H   0  0  0  0  0  0  0  0  0  0  0  0
   -1.2906  -46.6322   19.0897 H   0  0  0  0  0  0  0  0  0  0  0  0
   -1.2234  -47.2758   21.5376 H   0  0  0  0  0  0  0  0  0  0  0  0
   -2.7390  -53.1126   25.8081 H   0  0  0  0  0  0  0  0  0  0  0  0
   -2.8260  -52.3186   27.4527 H   0  0  0  0  0  0  0  0  0  0  0  0
   -4.8920  -46.8013   27.2887 H   0  0  0  0  0  0  0  0  0  0  0  0
   -3.2480  -47.3059   27.5978 H   0  0  0  0  0  0  0  0  0  0  0  0
   -4.5637  -48.0116   28.5054 H   0  0  0  0  0  0  0  0  0  0  0  0
   -4.4959  -49.4386   25.8123 H   0  0  0  0  0  0  0  0  0  0  0  0
   -4.9646  -47.5050   24.9543 H   0  0  0  0  0  0  0  0  0  0  0  0
   -6.2642  -48.4961   25.9224 H   0  0  0  0  0  0  0  0  0  0  0  0
   -5.4397  -48.6740   23.3564 H   0  0  0  0  0  0  0  0  0  0  0  0
   -6.6868  -49.5359   24.5010 H   0  0  0  0  0  0  0  0  0  0  0  0
   -4.7564  -50.5366   22.8983 H   0  0  0  0  0  0  0  0  0  0  0  0
   -6.0791  -51.1927   24.0933 H   0  0  0  0  0  0  0  0  0  0  0  0
   -3.4297  -51.6903   23.9251 H   0  0  0  0  0  0  0  0  0  0  0  0
   -4.8990  -52.2186   25.0071 H   0  0  0  0  0  0  0  0  0  0  0  0
   -4.1543  -50.4174   25.5457 H   0  0  0  0  0  0  0  0  0  0  0  0
   -2.5734  -49.5837   26.8042 H   0  0  0  0  0  0  0  0  0  0  0  0
   -4.1371  -50.3451   27.5681 H   0  0  0  0  0  0  0  0  0  0  0  0
  1  2  1  0  0  0  0
  1 31  1  1  0  0  0
  2  3  1  0  0  0  0
  2 32  1  0  0  0  0
  2 33  1  0  0  0  0
  3  4  1  0  0  0  0
  3 34  1  0  0  0  0
  3 35  1  0  0  0  0
  4  5  1  0  0  0  0
  4 36  1  0  0  0  0
  4 37  1  0  0  0  0
  5  6  1  0  0  0  0
  5 38  1  0  0  0  0
  5 39  1  0  0  0  0
  6  7  1  0  0  0  0
  6 40  1  0  0  0  0
  6 41  1  0  0  0  0
  7  9  1  0  0  0  0
  7  8  1  0  0  0  0
  7 42  1  1  0  0  0
  8  1  1  0  0  0  0
  8 43  1  0  0  0  0
  8 44  1  0  0  0  0
  9 10  1  0  0  0  0
  9 45  1  0  0  0  0
 10 11  2  0  0  0  0
 10 12  1  0  0  0  0
 12 13  2  0  0  0  0
 13 14  1  0  0  0  0
 14 15  2  0  0  0  0
 14 46  1  0  0  0  0
 15 16  1  0  0  0  0
 15 47  1  0  0  0  0
 16 17  2  0  0  0  0
 17 18  1  0  0  0  0
 17 48  1  0  0  0  0
 18 19  2  0  0  0  0
 18 49  1  0  0  0  0
 19 20  1  0  0  0  0
 19 50  1  0  0  0  0
 20 21  2  0  0  0  0
 21 12  1  0  0  0  0
 21 16  1  0  0  0  0
 22  1  1  0  0  0  0
 22 51  1  0  0  0  0
 22 52  1  0  0  0  0
 23 24  1  0  0  0  0
 23 53  1  0  0  0  0
 23 54  1  0  0  0  0
 23 55  1  0  0  0  0
 24 25  1  0  0  0  0
 24 56  1  1  0  0  0
 25 26  1  0  0  0  0
 25 57  1  0  0  0  0
 25 58  1  0  0  0  0
 26 27  1  0  0  0  0
 26 59  1  0  0  0  0
 26 60  1  0  0  0  0
 27 28  1  0  0  0  0
 27 61  1  0  0  0  0
 27 62  1  0  0  0  0
 28 29  1  0  0  0  0
 28 63  1  0  0  0  0
 28 64  1  0  0  0  0
 29 22  1  0  0  0  0
 29 30  1  0  0  0  0
 29 65  1  6  0  0  0
 30 24  1  0  0  0  0
 30 66  1  0  0  0  0
 30 67  1  0  0  0  0
M  CHG  2   1   1  24   1
M  END
>  <minimizedAffinity>
-9.67171

$$$$

 OpenBabel09092411003D

 51 53  0  0  0  0  0  0  0  0999 V2000
   -2.3544  -49.8080   18.7987 C   0  0  0  0  0  0  0  0  0  0  0  0
   -1.7570  -50.6172   19.9115 N   0  0  0  0  0  0  0  0  0  0  0  0
   -0.4692  -51.3552   19.6944 C   0  0  0  0  0  0  0  0  0  0  0  0
    0.2212  -51.2839   18.3646 C   0  0  0  0  0  0  0  0  0  0  0  0
    1.5089  -52.0218   18.1476 C   0  0  0  0  0  0  0  0  0  0  0  0
    2.1992  -51.9505   16.8178 C   0  0  0  0  0  0  0  0  0  0  0  0
    3.4870  -52.6884   16.6007 Cl  0  0  0  0  0  0  0  0  0  0  0  0
    1.6018  -51.1412   15.7051 C   0  0  0  0  0  0  0  0  0  0  0  0
    0.3141  -50.4033   15.9221 C   0  0  0  0  0  0  0  0  0  0  0  0
   -0.3762  -50.4746   17.2519 C   0  0  0  0  0  0  0  0  0  0  0  0
   -1.6640  -49.7366   17.4690 N   0  0  0  0  0  0  0  0  0  0  0  0
    0.1282  -52.1644   20.8072 N   0  0  0  0  0  0  0  0  0  0  0  0
    0.8641  -53.4347   20.4993 C   0  0  0  0  0  0  0  0  0  0  0  0
    1.4615  -54.2440   21.6120 C   0  0  0  0  0  0  0  0  0  0  0  0
    1.3230  -53.7830   23.0326 C   0  0  0  0  0  0  0  0  0  0  0  0
    0.5870  -52.5127   23.3406 C   0  0  2  0  0  0  0  0  0  0  0  0
   -0.0104  -51.7034   22.2279 C   0  0  0  0  0  0  0  0  0  0  0  0
    0.4485  -52.0517   24.7613 C   0  0  0  0  0  0  0  0  0  0  0  0
   -0.1699  -50.7183   25.0601 O   0  0  0  0  0  0  0  0  0  0  0  0
    0.9284  -52.9243   25.8831 N   0  0  0  0  0  0  0  0  0  0  0  0
    0.7898  -52.4633   27.3037 C   0  0  0  0  0  0  0  0  0  0  0  0
    1.9395  -51.7847   27.9875 C   0  0  0  0  0  0  0  0  0  0  0  0
   -0.4985  -52.6809   28.0406 C   0  0  0  0  0  0  0  0  0  0  0  0
   -4.9090  -46.9195   19.7372 C   0  0  0  0  0  0  0  0  0  0  0  0
   -3.6213  -47.6575   19.5201 C   0  0  0  0  0  0  0  0  0  0  0  0
   -2.3126  -46.9829   19.8074 O   0  0  0  0  0  0  0  0  0  0  0  0
   -3.6422  -49.0700   19.0158 N   0  0  0  0  0  0  0  0  0  0  0  0
    1.9199  -52.5785   18.9132 H   0  0  0  0  0  0  0  0  0  0  0  0
    2.0768  -51.0921   14.7902 H   0  0  0  0  0  0  0  0  0  0  0  0
   -0.0969  -49.8466   15.1565 H   0  0  0  0  0  0  0  0  0  0  0  0
    1.6666  -53.1749   19.8410 H   0  0  0  0  0  0  0  0  0  0  0  0
    0.0987  -54.0749   20.1131 H   0  0  0  0  0  0  0  0  0  0  0  0
    2.5101  -54.3175   21.4120 H   0  0  0  0  0  0  0  0  0  0  0  0
    0.8920  -55.1496   21.5907 H   0  0  0  0  0  0  0  0  0  0  0  0
    2.3145  -53.6666   23.4176 H   0  0  0  0  0  0  0  0  0  0  0  0
    0.7081  -54.5374   23.4771 H   0  0  0  0  0  0  0  0  0  0  0  0
   -0.1337  -53.2453   23.6386 H   0  0  0  0  0  0  0  0  0  0  0  0
    0.4320  -50.7306   22.2815 H   0  0  0  0  0  0  0  0  0  0  0  0
   -1.0626  -51.7759   22.4085 H   0  0  0  0  0  0  0  0  0  0  0  0
    1.3343  -53.7995   25.6869 H   0  0  0  0  0  0  0  0  0  0  0  0
   -0.0201  -52.5176   26.6066 H   0  0  0  0  0  0  0  0  0  0  0  0
    2.3680  -52.4490   28.7086 H   0  0  0  0  0  0  0  0  0  0  0  0
    1.5905  -50.9010   28.4796 H   0  0  0  0  0  0  0  0  0  0  0  0
    2.6801  -51.5200   27.2620 H   0  0  0  0  0  0  0  0  0  0  0  0
   -0.3042  -52.7307   29.0916 H   0  0  0  0  0  0  0  0  0  0  0  0
   -0.9443  -53.5980   27.7165 H   0  0  0  0  0  0  0  0  0  0  0  0
   -1.1660  -51.8692   27.8394 H   0  0  0  0  0  0  0  0  0  0  0  0
   -4.6989  -45.9336   20.0962 H   0  0  0  0  0  0  0  0  0  0  0  0
   -5.5027  -47.4424   20.4576 H   0  0  0  0  0  0  0  0  0  0  0  0
   -5.4439  -46.8560   18.8127 H   0  0  0  0  0  0  0  0  0  0  0  0
   -4.5011  -49.5127   18.8273 H   0  0  0  0  0  0  0  0  0  0  0  0
  1  2  2  0  0  0  0
  2  3  1  0  0  0  0
  3 12  1  0  0  0  0
  3  4  2  0  0  0  0
  4  5  1  0  0  0  0
  5  6  2  0  0  0  0
  5 28  1  0  0  0  0
  6  7  1  0  0  0  0
  6  8  1  0  0  0  0
  8  9  2  0  0  0  0
  8 29  1  0  0  0  0
  9 10  1  0  0  0  0
  9 30  1  0  0  0  0
 10 11  2  0  0  0  0
 10  4  1  0  0  0  0
 11  1  1  0  0  0  0
 12 13  1  0  0  0  0
 13 14  1  0  0  0  0
 13 31  1  0  0  0  0
 13 32  1  0  0  0  0
 14 15  1  0  0  0  0
 14 33  1  0  0  0  0
 14 34  1  0  0  0  0
 15 16  1  0  0  0  0
 15 35  1  0  0  0  0
 15 36  1  0  0  0  0
 16 18  1  0  0  0  0
 16 17  1  0  0  0  0
 16 37  1  1  0  0  0
 17 12  1  0  0  0  0
 17 38  1  0  0  0  0
 17 39  1  0  0  0  0
 18 19  2  0  0  0  0
 18 20  1  0  0  0  0
 20 21  1  0  0  0  0
 20 40  1  0  0  0  0
 21 22  1  0  0  0  0
 21 23  1  0  0  0  0
 21 41  1  0  0  0  0
 22 42  1  0  0  0  0
 22 43  1  0  0  0  0
 22 44  1  0  0  0  0
 23 45  1  0  0  0  0
 23 46  1  0  0  0  0
 23 47  1  0  0  0  0
 24 25  1  0  0  0  0
 24 48  1  0  0  0  0
 24 49  1  0  0  0  0
 24 50  1  0  0  0  0
 25 26  2  0  0  0  0
 25 27  1  0  0  0  0
 27  1  1  0  0  0  0
 27 51  1  0  0  0  0
M  END
>  <minimizedAffinity>
-7.93231

$$$$

 OpenBabel09092411003D

 48 49  0  0  0  0  0  0  0  0999 V2000
    0.5727  -52.8532   27.2795 C   0  0  1  0  0  0  0  0  0  0  0  0
    1.3354  -52.2081   28.3984 C   0  0  0  0  0  0  0  0  0  0  0  0
    2.5273  -51.3491   28.0960 C   0  0  0  0  0  0  0  0  0  0  0  0
    2.9564  -51.1352   26.6747 C   0  0  0  0  0  0  0  0  0  0  0  0
    2.1937  -51.7803   25.5558 C   0  0  0  0  0  0  0  0  0  0  0  0
    1.0018  -52.6394   25.8582 N   0  0  0  0  0  0  0  0  0  0  0  0
    0.2390  -53.2845   24.7392 C   0  0  0  0  0  0  0  0  0  0  0  0
   -0.9528  -54.1435   25.0416 O   0  0  0  0  0  0  0  0  0  0  0  0
   -0.6193  -53.7123   27.5818 C   0  0  0  0  0  0  0  0  0  0  0  0
   -1.8955  -53.0838   28.0573 N   0  0  0  0  0  0  0  0  0  0  0  0
   -5.0786  -51.5735   24.2380 C   0  0  0  0  0  0  0  0  0  0  0  0
   -4.1276  -51.2337   25.3471 C   0  0  0  0  0  0  0  0  0  0  0  0
   -3.8171  -49.7990   25.6557 C   0  0  0  0  0  0  0  0  0  0  0  0
   -2.8660  -49.4593   26.7648 C   0  0  0  0  0  0  0  0  0  0  0  0
   -2.2255  -50.5541   27.5653 N   0  0  0  0  0  0  0  0  0  0  0  0
   -2.5360  -51.9888   27.2567 C   0  0  0  0  0  0  0  0  0  0  0  0
   -3.4870  -52.3286   26.1476 N   0  0  0  0  0  0  0  0  0  0  0  0
    0.6682  -53.0707   23.3179 C   0  0  0  0  0  0  0  0  0  0  0  0
   -0.0188  -52.0380   22.4744 C   0  0  0  0  0  0  0  0  0  0  0  0
   -0.7714  -50.9164   23.1267 O   0  0  0  0  0  0  0  0  0  0  0  0
    0.0467  -52.1270   20.9784 N   0  0  0  0  0  0  0  0  0  0  0  0
   -0.6403  -51.0943   20.1349 C   0  0  0  0  0  0  0  0  0  0  0  0
    0.7993  -53.2486   20.3261 C   0  0  0  0  0  0  0  0  0  0  0  0
    1.0903  -52.1361   27.8818 H   0  0  0  0  0  0  0  0  0  0  0  0
    1.6771  -52.9975   29.0347 H   0  0  0  0  0  0  0  0  0  0  0  0
    0.6308  -51.5154   28.8090 H   0  0  0  0  0  0  0  0  0  0  0  0
    3.3599  -51.7848   28.6078 H   0  0  0  0  0  0  0  0  0  0  0  0
    2.2136  -50.3747   28.4075 H   0  0  0  0  0  0  0  0  0  0  0  0
    3.9657  -51.4828   26.6011 H   0  0  0  0  0  0  0  0  0  0  0  0
    2.7833  -50.0907   26.5201 H   0  0  0  0  0  0  0  0  0  0  0  0
    2.8889  -52.3935   25.0214 H   0  0  0  0  0  0  0  0  0  0  0  0
    1.7705  -50.9473   25.0343 H   0  0  0  0  0  0  0  0  0  0  0  0
   -0.8529  -54.2438   26.6830 H   0  0  0  0  0  0  0  0  0  0  0  0
   -0.2998  -54.2884   28.4250 H   0  0  0  0  0  0  0  0  0  0  0  0
   -2.3128  -53.3899   28.8948 H   0  0  0  0  0  0  0  0  0  0  0  0
   -5.4329  -50.6721   23.7833 H   0  0  0  0  0  0  0  0  0  0  0  0
   -5.9071  -52.1226   24.6342 H   0  0  0  0  0  0  0  0  0  0  0  0
   -4.5742  -52.1682   23.5053 H   0  0  0  0  0  0  0  0  0  0  0  0
   -4.2578  -49.0457   25.1050 H   0  0  0  0  0  0  0  0  0  0  0  0
   -2.6523  -48.4722   26.9771 H   0  0  0  0  0  0  0  0  0  0  0  0
    0.5507  -54.0080   22.8154 H   0  0  0  0  0  0  0  0  0  0  0  0
    1.6620  -52.6866   23.4162 H   0  0  0  0  0  0  0  0  0  0  0  0
   -1.1213  -50.3787   20.7685 H   0  0  0  0  0  0  0  0  0  0  0  0
   -1.3711  -51.5693   19.5143 H   0  0  0  0  0  0  0  0  0  0  0  0
    0.0815  -50.5982   19.5202 H   0  0  0  0  0  0  0  0  0  0  0  0
    1.2195  -53.8817   21.0794 H   0  0  0  0  0  0  0  0  0  0  0  0
    1.5839  -52.8465   19.7198 H   0  0  0  0  0  0  0  0  0  0  0  0
    0.1314  -53.8177   19.7138 H   0  0  0  0  0  0  0  0  0  0  0  0
  1  9  1  0  0  0  0
  1  2  1  0  0  0  0
  1 24  1  6  0  0  0
  2  3  1  0  0  0  0
  2 25  1  0  0  0  0
  2 26  1  0  0  0  0
  3  4  1  0  0  0  0
  3 27  1  0  0  0  0
  3 28  1  0  0  0  0
  4  5  1  0  0  0  0
  4 29  1  0  0  0  0
  4 30  1  0  0  0  0
  5  6  1  0  0  0  0
  5 31  1  0  0  0  0
  5 32  1  0  0  0  0
  6  7  1  0  0  0  0
  6  1  1  0  0  0  0
  7  8  2  0  0  0  0
  7 18  1  0  0  0  0
  9 33  1  0  0  0  0
  9 34  1  0  0  0  0
 10  9  1  0  0  0  0
 10 35  1  0  0  0  0
 11 12  1  0  0  0  0
 11 36  1  0  0  0  0
 11 37  1  0  0  0  0
 11 38  1  0  0  0  0
 12 13  2  0  0  0  0
 13 14  1  0  0  0  0
 13 39  1  0  0  0  0
 14 15  2  0  0  0  0
 14 40  1  0  0  0  0
 15 16  1  0  0  0  0
 16 10  1  0  0  0  0
 16 17  2  0  0  0  0
 17 12  1  0  0  0  0
 18 19  1  0  0  0  0
 18 41  1  0  0  0  0
 18 42  1  0  0  0  0
 19 20  2  0  0  0  0
 19 21  1  0  0  0  0
 21 22  1  0  0  0  0
 21 23  1  0  0  0  0
 22 43  1  0  0  0  0
 22 44  1  0  0  0  0
 22 45  1  0  0  0  0
 23 46  1  0  0  0  0
 23 47  1  0  0  0  0
 23 48  1  0  0  0  0
M  END
>  <minimizedAffinity>
-6.94715

$$$$

 OpenBabel09092411003D

 59 62  0  0  0  0  0  0  0  0999 V2000
    0.7306  -51.9055   17.5665 N   0  0  0  0  0  0  0  0  0  0  0  0
    0.7231  -51.1870   18.8832 C   0  0  0  0  0  0  0  0  0  0  0  0
    0.6509  -49.6892   18.9199 O   0  0  0  0  0  0  0  0  0  0  0  0
   -0.5752  -50.3599   15.9368 C   0  0  0  0  0  0  0  0  0  0  0  0
   -0.6398  -49.5805   14.6568 C   0  0  0  0  0  0  0  0  0  0  0  0
    0.5367  -49.5674   13.7265 C   0  0  0  0  0  0  0  0  0  0  0  0
    1.7780  -50.3337   14.0762 C   0  0  0  0  0  0  0  0  0  0  0  0
    2.9545  -50.3205   13.1458 C   0  0  0  0  0  0  0  0  0  0  0  0
    4.1957  -51.0868   13.4956 C   0  0  0  0  0  0  0  0  0  0  0  0
    4.2603  -51.8661   14.7756 C   0  0  0  0  0  0  0  0  0  0  0  0
    3.0838  -51.8792   15.7059 C   0  0  0  0  0  0  0  0  0  0  0  0
    3.1484  -52.6586   16.9859 Cl  0  0  0  0  0  0  0  0  0  0  0  0
    1.8426  -51.1130   15.3562 C   0  0  0  0  0  0  0  0  0  0  0  0
    0.6660  -51.1261   16.2865 C   0  0  0  0  0  0  0  0  0  0  0  0
   -3.0428  -49.7314   16.4527 C   0  0  0  0  0  0  0  0  0  0  0  0
   -1.7518  -50.3730   16.8671 O   0  0  0  0  0  0  0  0  0  0  0  0
    0.7877  -51.9664   20.1632 C   0  0  1  0  0  0  0  0  0  0  0  0
    1.5703  -53.2445   20.2244 C   0  0  0  0  0  0  0  0  0  0  0  0
    1.6349  -54.0239   21.5044 C   0  0  0  0  0  0  0  0  0  0  0  0
    0.9169  -53.5251   22.7232 C   0  0  0  0  0  0  0  0  0  0  0  0
    0.1342  -52.2469   22.6621 N   0  0  0  0  0  0  0  0  0  0  0  0
   -0.5838  -51.7481   23.8810 C   0  0  0  0  0  0  0  0  0  0  0  0
   -1.3664  -50.4700   23.8198 O   0  0  0  0  0  0  0  0  0  0  0  0
    0.0696  -51.4675   21.3821 C   0  0  0  0  0  0  0  0  0  0  0  0
   -0.5191  -52.5275   25.1610 C   0  0  0  0  0  0  0  0  0  0  0  0
    0.5281  -52.2029   26.1846 N   0  3  0  0  0  0  0  0  0  0  0  0
    0.3824  -52.3452   27.6707 C   0  0  0  0  0  0  0  0  0  0  0  0
    1.6692  -51.9093   28.3065 C   0  0  0  0  0  0  0  0  0  0  0  0
    2.6102  -51.4976   27.2133 C   0  0  0  0  0  0  0  0  0  0  0  0
    1.9050  -51.6791   25.9019 C   0  0  0  0  0  0  0  0  0  0  0  0
    0.7779  -52.8886   17.5424 H   0  0  0  0  0  0  0  0  0  0  0  0
   -1.4937  -49.0533   14.4162 H   0  0  0  0  0  0  0  0  0  0  0  0
    0.4922  -49.0312   12.8458 H   0  0  0  0  0  0  0  0  0  0  0  0
    2.9100  -49.7843   12.2652 H   0  0  0  0  0  0  0  0  0  0  0  0
    5.0052  -51.0778   12.8556 H   0  0  0  0  0  0  0  0  0  0  0  0
    5.1142  -52.3933   15.0162 H   0  0  0  0  0  0  0  0  0  0  0  0
   -3.7622  -49.8382   17.2375 H   0  0  0  0  0  0  0  0  0  0  0  0
   -3.4087  -50.2063   15.5664 H   0  0  0  0  0  0  0  0  0  0  0  0
   -2.8784  -48.6921   16.2585 H   0  0  0  0  0  0  0  0  0  0  0  0
    0.8966  -52.9525   19.7625 H   0  0  0  0  0  0  0  0  0  0  0  0
    2.5782  -53.0025   19.9589 H   0  0  0  0  0  0  0  0  0  0  0  0
    1.0311  -53.8947   19.5675 H   0  0  0  0  0  0  0  0  0  0  0  0
    2.6694  -54.1029   21.7660 H   0  0  0  0  0  0  0  0  0  0  0  0
    1.1169  -54.9296   21.2673 H   0  0  0  0  0  0  0  0  0  0  0  0
    1.6557  -53.3987   23.4868 H   0  0  0  0  0  0  0  0  0  0  0  0
    0.1635  -54.2673   22.8857 H   0  0  0  0  0  0  0  0  0  0  0  0
    0.4595  -50.4937   21.5934 H   0  0  0  0  0  0  0  0  0  0  0  0
   -0.9617  -51.5349   21.1049 H   0  0  0  0  0  0  0  0  0  0  0  0
   -0.3798  -53.5535   24.8912 H   0  0  0  0  0  0  0  0  0  0  0  0
   -1.4330  -52.2681   25.6533 H   0  0  0  0  0  0  0  0  0  0  0  0
   -0.1841  -52.4231   25.4884 H   0  0  0  0  0  0  0  0  0  0  0  0
    0.1820  -53.3663   27.9198 H   0  0  0  0  0  0  0  0  0  0  0  0
   -0.4291  -51.7438   28.0239 H   0  0  0  0  0  0  0  0  0  0  0  0
    2.0917  -52.7194   28.8634 H   0  0  0  0  0  0  0  0  0  0  0  0
    1.4954  -51.0919   28.9748 H   0  0  0  0  0  0  0  0  0  0  0  0
    3.4883  -52.1083   27.2409 H   0  0  0  0  0  0  0  0  0  0  0  0
    2.9028  -50.4762   27.3398 H   0  0  0  0  0  0  0  0  0  0  0  0
    2.4417  -52.3778   25.2947 H   0  0  0  0  0  0  0  0  0  0  0  0
    1.8481  -50.7476   25.3784 H   0  0  0  0  0  0  0  0  0  0  0  0
  1  2  1  0  0  0  0
  1 31  1  0  0  0  0
  2  3  2  0  0  0  0
  4  5  2  0  0  0  0
  5  6  1  0  0  0  0
  5 32  1  0  0  0  0
  6  7  2  0  0  0  0
  6 33  1  0  0  0  0
  7  8  1  0  0  0  0
  8  9  2  0  0  0  0
  8 34  1  0  0  0  0
  9 10  1  0  0  0  0
  9 35  1  0  0  0  0
 10 11  2  0  0  0  0
 10 36  1  0  0  0  0
 11 12  1  0  0  0  0
 11 13  1  0  0  0  0
 13 14  2  0  0  0  0
 13  7  1  0  0  0  0
 14  1  1  0  0  0  0
 14  4  1  0  0  0  0
 15 16  1  0  0  0  0
 15 37  1  0  0  0  0
 15 38  1  0  0  0  0
 15 39  1  0  0  0  0
 16  4  1  0  0  0  0
 17  2  1  0  0  0  0
 17 18  1  0  0  0  0
 17 40  1  6  0  0  0
 18 19  1  0  0  0  0
 18 41  1  0  0  0  0
 18 42  1  0  0  0  0
 19 20  1  0  0  0  0
 19 43  1  0  0  0  0
 19 44  1  0  0  0  0
 20 21  1  0  0  0  0
 20 45  1  0  0  0  0
 20 46  1  0  0  0  0
 21 22  1  0  0  0  0
 21 24  1  0  0  0  0
 22 23  2  0  0  0  0
 22 25  1  0  0  0  0
 24 17  1  0  0  0  0
 24 47  1  0  0  0  0
 24 48  1  0  0  0  0
 25 26  1  0  0  0  0
 25 49  1  0  0  0  0
 25 50  1  0  0  0  0
 26 27  1  0  0  0  0
 26 51  1  0  0  0  0
 27 28  1  0  0  0  0
 27 52  1  0  0  0  0
 27 53  1  0  0  0  0
 28 29  1  0  0  0  0
 28 54  1  0  0  0  0
 28 55  1  0  0  0  0
 29 30  1  0  0  0  0
 29 56  1  0  0  0  0
 29 57  1  0  0  0  0
 30 26  1  0  0  0  0
 30 58  1  0  0  0  0
 30 59  1  0  0  0  0
M  CHG  1  26   1
M  END
>  <minimizedAffinity>
-8.49595

$$$$

 OpenBabel09092411003D

 70 73  0  0  0  0  0  0  0  0999 V2000
    0.3198  -52.6389   24.4794 C   0  0  0  0  0  0  0  0  0  0  0  0
   -1.1491  -52.8928   24.6471 C   0  0  0  0  0  0  0  0  0  0  0  0
   -1.9576  -52.0342   25.5740 C   0  0  0  0  0  0  0  0  0  0  0  0
   -1.2973  -50.9217   26.3332 C   0  0  0  0  0  0  0  0  0  0  0  0
    0.1715  -50.6678   26.1655 C   0  0  0  0  0  0  0  0  0  0  0  0
    0.9800  -51.5264   25.2385 C   0  0  0  0  0  0  0  0  0  0  0  0
    1.1283  -53.4975   23.5525 N   0  0  0  0  0  0  0  0  0  0  0  0
    1.6139  -52.3137   19.2382 C   0  0  0  0  0  0  0  0  0  0  0  0
    0.8408  -51.4335   20.1750 C   0  0  0  0  0  0  0  0  0  0  0  0
    0.6789  -51.8281   21.6131 C   0  0  0  0  0  0  0  0  0  0  0  0
    1.2901  -53.1029   22.1144 C   0  0  0  0  0  0  0  0  0  0  0  0
    2.0633  -53.9830   21.1777 N   0  0  0  0  0  0  0  0  0  0  0  0
    2.2251  -53.5884   19.7396 N   0  0  0  0  0  0  0  0  0  0  0  0
    2.2614  -50.7353   13.4859 C   0  0  0  0  0  0  0  0  0  0  0  0
    2.0995  -51.1299   14.9240 N   0  3  1  0  0  0  0  0  0  0  0  0
    3.1061  -52.0340   15.5715 C   0  0  0  0  0  0  0  0  0  0  0  0
    2.9442  -52.4286   17.0096 C   0  0  0  0  0  0  0  0  0  0  0  0
    1.7758  -51.9191   17.8002 N   0  0  0  0  0  0  0  0  0  0  0  0
    0.7692  -51.0149   17.1527 C   0  0  0  0  0  0  0  0  0  0  0  0
    0.9311  -50.6203   15.7146 C   0  0  0  0  0  0  0  0  0  0  0  0
   -2.1059  -50.0631   27.2601 O   0  0  0  0  0  0  0  0  0  0  0  0
   -3.0001  -48.9948   26.7042 C   0  0  1  0  0  0  0  0  0  0  0  0
   -4.1164  -48.4415   27.5395 C   0  0  0  0  0  0  0  0  0  0  0  0
   -5.0106  -47.3731   26.9836 C   0  0  0  0  0  0  0  0  0  0  0  0
   -4.7885  -46.8581   25.5923 C   0  0  0  0  0  0  0  0  0  0  0  0
   -3.6722  -47.4114   24.7570 N   0  0  0  0  0  0  0  0  0  0  0  0
   -3.4501  -46.8964   23.3659 C   0  0  0  0  0  0  0  0  0  0  0  0
   -2.3338  -47.4498   22.5306 O   0  0  0  0  0  0  0  0  0  0  0  0
   -2.7780  -48.4798   25.3130 C   0  0  0  0  0  0  0  0  0  0  0  0
   -4.3443  -45.8281   22.8100 C   0  0  0  0  0  0  0  0  0  0  0  0
   -3.3460  -44.7833   23.2121 C   0  0  0  0  0  0  0  0  0  0  0  0
   -5.3426  -46.8729   22.4079 C   0  0  0  0  0  0  0  0  0  0  0  0
   -5.2385  -44.7597   22.2541 C   0  0  0  0  0  0  0  0  0  0  0  0
   -1.6034  -53.6582   24.1248 H   0  0  0  0  0  0  0  0  0  0  0  0
   -2.9681  -52.2089   25.6894 H   0  0  0  0  0  0  0  0  0  0  0  0
    0.6258  -49.9024   26.6879 H   0  0  0  0  0  0  0  0  0  0  0  0
    1.9905  -51.3516   25.1230 H   0  0  0  0  0  0  0  0  0  0  0  0
    1.5527  -54.3200   23.8880 H   0  0  0  0  0  0  0  0  0  0  0  0
    0.4203  -50.5564   19.8301 H   0  0  0  0  0  0  0  0  0  0  0  0
    0.1470  -51.2225   22.2576 H   0  0  0  0  0  0  0  0  0  0  0  0
    3.1444  -51.1905   13.0884 H   0  0  0  0  0  0  0  0  0  0  0  0
    2.3461  -49.6710   13.4154 H   0  0  0  0  0  0  0  0  0  0  0  0
    1.4092  -51.0630   12.9280 H   0  0  0  0  0  0  0  0  0  0  0  0
    1.3939  -51.7689   14.5576 H   0  0  0  0  0  0  0  0  0  0  0  0
    4.0557  -51.5478   15.4896 H   0  0  0  0  0  0  0  0  0  0  0  0
    2.9798  -52.9581   15.0472 H   0  0  0  0  0  0  0  0  0  0  0  0
    3.8272  -52.1050   17.5200 H   0  0  0  0  0  0  0  0  0  0  0  0
    2.7648  -53.4821   16.9568 H   0  0  0  0  0  0  0  0  0  0  0  0
    0.7564  -50.1090   17.7220 H   0  0  0  0  0  0  0  0  0  0  0  0
   -0.1235  -51.6048   17.1469 H   0  0  0  0  0  0  0  0  0  0  0  0
    0.9850  -49.5519   15.6917 H   0  0  0  0  0  0  0  0  0  0  0  0
    0.0915  -51.0808   15.2372 H   0  0  0  0  0  0  0  0  0  0  0  0
   -3.6459  -48.2326   26.3210 H   0  0  0  0  0  0  0  0  0  0  0  0
   -3.6699  -48.0405   28.4253 H   0  0  0  0  0  0  0  0  0  0  0  0
   -4.7744  -49.2773   27.6554 H   0  0  0  0  0  0  0  0  0  0  0  0
   -4.9323  -46.5321   27.6405 H   0  0  0  0  0  0  0  0  0  0  0  0
   -5.9619  -47.8585   26.9173 H   0  0  0  0  0  0  0  0  0  0  0  0
   -4.6188  -45.8050   25.6762 H   0  0  0  0  0  0  0  0  0  0  0  0
   -5.6669  -47.1747   25.0697 H   0  0  0  0  0  0  0  0  0  0  0  0
   -1.7802  -48.0946   25.2819 H   0  0  0  0  0  0  0  0  0  0  0  0
   -2.9972  -49.3281   24.6988 H   0  0  0  0  0  0  0  0  0  0  0  0
   -2.5072  -45.2534   23.6816 H   0  0  0  0  0  0  0  0  0  0  0  0
   -3.8016  -44.0997   23.8977 H   0  0  0  0  0  0  0  0  0  0  0  0
   -3.0170  -44.2515   22.3439 H   0  0  0  0  0  0  0  0  0  0  0  0
   -4.9786  -47.8398   22.6862 H   0  0  0  0  0  0  0  0  0  0  0  0
   -5.4883  -46.8380   21.3484 H   0  0  0  0  0  0  0  0  0  0  0  0
   -6.2730  -46.6862   22.9023 H   0  0  0  0  0  0  0  0  0  0  0  0
   -4.7797  -43.8030   22.3924 H   0  0  0  0  0  0  0  0  0  0  0  0
   -6.1792  -44.7811   22.7636 H   0  0  0  0  0  0  0  0  0  0  0  0
   -5.3945  -44.9329   21.2098 H   0  0  0  0  0  0  0  0  0  0  0  0
  1  2  2  0  0  0  0
  2  3  1  0  0  0  0
  2 34  1  0  0  0  0
  3  4  2  0  0  0  0
  3 35  1  0  0  0  0
  4 21  1  0  0  0  0
  4  5  1  0  0  0  0
  5  6  2  0  0  0  0
  5 36  1  0  0  0  0
  6  1  1  0  0  0  0
  6 37  1  0  0  0  0
  7  1  1  0  0  0  0
  7 38  1  0  0  0  0
  8  9  2  0  0  0  0
  9 10  1  0  0  0  0
  9 39  1  0  0  0  0
 10 11  2  0  0  0  0
 10 40  1  0  0  0  0
 11  7  1  0  0  0  0
 11 12  1  0  0  0  0
 12 13  2  0  0  0  0
 13  8  1  0  0  0  0
 14 15  1  0  0  0  0
 14 41  1  0  0  0  0
 14 42  1  0  0  0  0
 14 43  1  0  0  0  0
 15 16  1  0  0  0  0
 15 44  1  6  0  0  0
 16 17  1  0  0  0  0
 16 45  1  0  0  0  0
 16 46  1  0  0  0  0
 17 18  1  0  0  0  0
 17 47  1  0  0  0  0
 17 48  1  0  0  0  0
 18  8  1  0  0  0  0
 18 19  1  0  0  0  0
 19 20  1  0  0  0  0
 19 49  1  0  0  0  0
 19 50  1  0  0  0  0
 20 15  1  0  0  0  0
 20 51  1  0  0  0  0
 20 52  1  0  0  0  0
 22 21  1  0  0  0  0
 22 23  1  0  0  0  0
 22 53  1  6  0  0  0
 23 24  1  0  0  0  0
 23 54  1  0  0  0  0
 23 55  1  0  0  0  0
 24 25  1  0  0  0  0
 24 56  1  0  0  0  0
 24 57  1  0  0  0  0
 25 26  1  0  0  0  0
 25 58  1  0  0  0  0
 25 59  1  0  0  0  0
 26 27  1  0  0  0  0
 26 29  1  0  0  0  0
 27 28  2  0  0  0  0
 27 30  1  0  0  0  0
 29 22  1  0  0  0  0
 29 60  1  0  0  0  0
 29 61  1  0  0  0  0
 30 31  1  0  0  0  0
 30 32  1  0  0  0  0
 30 33  1  0  0  0  0
 31 62  1  0  0  0  0
 31 63  1  0  0  0  0
 31 64  1  0  0  0  0
 32 65  1  0  0  0  0
 32 66  1  0  0  0  0
 32 67  1  0  0  0  0
 33 68  1  0  0  0  0
 33 69  1  0  0  0  0
 33 70  1  0  0  0  0
M  CHG  1  15   1
M  END
>  <minimizedAffinity>
-8.06342

$$$$

 OpenBabel09092411003D

 74 77  0  0  0  0  0  0  0  0999 V2000
   -0.8374  -49.8845   15.4833 C   0  0  0  0  0  0  0  0  0  0  0  0
    0.5551  -49.9188   16.0396 C   0  0  0  0  0  0  0  0  0  0  0  0
    0.7733  -50.1876   17.4992 C   0  0  0  0  0  0  0  0  0  0  0  0
   -0.4011  -50.4222   18.4023 C   0  0  0  0  0  0  0  0  0  0  0  0
   -1.7937  -50.3879   17.8460 N   0  0  0  0  0  0  0  0  0  0  0  0
   -2.0119  -50.1191   16.3865 C   0  0  0  0  0  0  0  0  0  0  0  0
   -0.9851  -50.4167   11.5533 N   0  0  0  0  0  0  0  0  0  0  0  0
   -0.7669  -50.6855   13.0128 C   0  0  0  0  0  0  0  0  0  0  0  0
   -0.2599  -52.0241   13.4613 O   0  0  0  0  0  0  0  0  0  0  0  0
   -1.0556  -49.6157   14.0238 N   0  0  0  0  0  0  0  0  0  0  0  0
    0.1700  -54.6959    7.5093 C   0  0  0  0  0  0  0  0  0  0  0  0
   -0.9290  -55.6048    7.0444 O   0  0  0  0  0  0  0  0  0  0  0  0
   -0.1188  -53.6261    8.5203 N   0  0  0  0  0  0  0  0  0  0  0  0
    0.9801  -52.7171    8.9851 C   0  0  0  0  0  0  0  0  0  0  0  0
    0.6914  -51.6473    9.9961 C   0  0  0  0  0  0  0  0  0  0  0  0
   -0.6963  -51.4865   10.5423 C   0  0  0  0  0  0  0  0  0  0  0  0
   -1.7953  -52.3954   10.0775 C   0  0  0  0  0  0  0  0  0  0  0  0
   -1.5065  -53.4652    9.0665 C   0  0  0  0  0  0  0  0  0  0  0  0
    2.5834  -55.6303    7.7372 C   0  0  0  0  0  0  0  0  0  0  0  0
    1.5576  -54.8567    6.9630 C   0  0  0  0  0  0  0  0  0  0  0  0
   -0.1829  -50.6910   19.8618 N   0  0  0  0  0  0  0  0  0  0  0  0
    0.4402  -51.9827   20.3015 C   0  0  0  0  0  0  0  0  0  0  0  0
    0.6583  -52.2516   21.7611 C   0  0  0  0  0  0  0  0  0  0  0  0
    0.2534  -51.2288   22.7808 C   0  0  0  0  0  0  0  0  0  0  0  0
   -0.3697  -49.9371   22.3410 C   0  0  0  0  0  0  0  0  0  0  0  0
   -0.5879  -49.6682   20.8816 C   0  0  0  0  0  0  0  0  0  0  0  0
    0.4715  -51.4976   24.2403 N   0  3  2  0  0  0  0  0  0  0  0  0
    1.7370  -51.0438   24.9055 C   0  0  0  0  0  0  0  0  0  0  0  0
    1.9552  -51.3126   26.3650 C   0  0  0  0  0  0  0  0  0  0  0  0
    0.9079  -52.0353   27.1593 N   0  3  1  0  0  0  0  0  0  0  0  0
    1.1260  -52.3041   28.6188 C   0  0  0  0  0  0  0  0  0  0  0  0
   -0.3577  -52.4891   26.4940 C   0  0  0  0  0  0  0  0  0  0  0  0
   -0.5758  -52.2202   25.0346 C   0  0  0  0  0  0  0  0  0  0  0  0
    1.3631  -49.7575   15.4182 H   0  0  0  0  0  0  0  0  0  0  0  0
    1.7314  -50.2111   17.8820 H   0  0  0  0  0  0  0  0  0  0  0  0
   -2.9700  -50.0956   16.0037 H   0  0  0  0  0  0  0  0  0  0  0  0
   -1.3179  -49.5381   11.2589 H   0  0  0  0  0  0  0  0  0  0  0  0
   -1.3883  -48.7371   13.7294 H   0  0  0  0  0  0  0  0  0  0  0  0
    1.3625  -52.2250    8.1153 H   0  0  0  0  0  0  0  0  0  0  0  0
    1.6408  -53.3771    9.5074 H   0  0  0  0  0  0  0  0  0  0  0  0
    0.9549  -50.7146    9.5427 H   0  0  0  0  0  0  0  0  0  0  0  0
    1.2575  -51.9565   10.8498 H   0  0  0  0  0  0  0  0  0  0  0  0
    0.0531  -52.2339   10.6994 H   0  0  0  0  0  0  0  0  0  0  0  0
   -2.5559  -51.7708    9.6576 H   0  0  0  0  0  0  0  0  0  0  0  0
   -2.0448  -52.9499   10.9579 H   0  0  0  0  0  0  0  0  0  0  0  0
   -2.1482  -53.2812    8.2303 H   0  0  0  0  0  0  0  0  0  0  0  0
   -1.6612  -54.3705    9.6155 H   0  0  0  0  0  0  0  0  0  0  0  0
    3.5067  -55.6388    7.1965 H   0  0  0  0  0  0  0  0  0  0  0  0
    2.2423  -56.6349    7.8764 H   0  0  0  0  0  0  0  0  0  0  0  0
    2.7329  -55.1691    8.6910 H   0  0  0  0  0  0  0  0  0  0  0  0
    1.4613  -55.3373    6.0118 H   0  0  0  0  0  0  0  0  0  0  0  0
    1.9431  -53.8586    6.9730 H   0  0  0  0  0  0  0  0  0  0  0  0
    1.3992  -52.0392   19.8303 H   0  0  0  0  0  0  0  0  0  0  0  0
   -0.2886  -52.7148   20.0227 H   0  0  0  0  0  0  0  0  0  0  0  0
    1.7071  -52.4189   21.8910 H   0  0  0  0  0  0  0  0  0  0  0  0
    0.0009  -53.0718   21.9610 H   0  0  0  0  0  0  0  0  0  0  0  0
    1.2854  -51.5001   22.8598 H   0  0  0  0  0  0  0  0  0  0  0  0
    0.2558  -49.1512   22.7097 H   0  0  0  0  0  0  0  0  0  0  0  0
   -1.3642  -49.9984   22.7311 H   0  0  0  0  0  0  0  0  0  0  0  0
   -0.0523  -48.7715   20.6493 H   0  0  0  0  0  0  0  0  0  0  0  0
   -1.6539  -49.6414   20.7931 H   0  0  0  0  0  0  0  0  0  0  0  0
   -0.5316  -51.4451   24.0628 H   0  0  0  0  0  0  0  0  0  0  0  0
    1.7912  -49.9831   24.7753 H   0  0  0  0  0  0  0  0  0  0  0  0
    2.4906  -51.6368   24.4309 H   0  0  0  0  0  0  0  0  0  0  0  0
    2.0992  -50.3626   26.8359 H   0  0  0  0  0  0  0  0  0  0  0  0
    2.7804  -51.9937   26.3689 H   0  0  0  0  0  0  0  0  0  0  0  0
    1.6231  -52.7341   27.3608 H   0  0  0  0  0  0  0  0  0  0  0  0
    0.4670  -51.6905   29.1968 H   0  0  0  0  0  0  0  0  0  0  0  0
    2.1400  -52.0786   28.8754 H   0  0  0  0  0  0  0  0  0  0  0  0
    0.9266  -53.3349   28.8253 H   0  0  0  0  0  0  0  0  0  0  0  0
   -1.1662  -52.0237   27.0180 H   0  0  0  0  0  0  0  0  0  0  0  0
   -0.2910  -53.5560   26.5402 H   0  0  0  0  0  0  0  0  0  0  0  0
   -1.4741  -51.6440   24.9576 H   0  0  0  0  0  0  0  0  0  0  0  0
   -0.5805  -53.1990   24.6023 H   0  0  0  0  0  0  0  0  0  0  0  0
  1  2  2  0  0  0  0
  2  3  1  0  0  0  0
  2 34  1  0  0  0  0
  3  4  2  0  0  0  0
  3 35  1  0  0  0  0
  4 21  1  0  0  0  0
  4  5  1  0  0  0  0
  5  6  2  0  0  0  0
  6  1  1  0  0  0  0
  6 36  1  0  0  0  0
  7  8  1  0  0  0  0
  7 37  1  0  0  0  0
  8  9  2  0  0  0  0
  8 10  1  0  0  0  0
 10  1  1  0  0  0  0
 10 38  1  0  0  0  0
 11 12  2  0  0  0  0
 11 13  1  0  0  0  0
 13 14  1  0  0  0  0
 14 15  1  0  0  0  0
 14 39  1  0  0  0  0
 14 40  1  0  0  0  0
 15 16  1  0  0  0  0
 15 41  1  0  0  0  0
 15 42  1  0  0  0  0
 16  7  1  0  0  0  0
 16 17  1  0  0  0  0
 16 43  1  0  0  0  0
 17 18  1  0  0  0  0
 17 44  1  0  0  0  0
 17 45  1  0  0  0  0
 18 13  1  0  0  0  0
 18 46  1  0  0  0  0
 18 47  1  0  0  0  0
 19 20  1  0  0  0  0
 19 48  1  0  0  0  0
 19 49  1  0  0  0  0
 19 50  1  0  0  0  0
 20 11  1  0  0  0  0
 20 51  1  0  0  0  0
 20 52  1  0  0  0  0
 21 22  1  0  0  0  0
 22 23  1  0  0  0  0
 22 53  1  0  0  0  0
 22 54  1  0  0  0  0
 23 24  1  0  0  0  0
 23 55  1  0  0  0  0
 23 56  1  0  0  0  0
 24 27  1  0  0  0  0
 24 25  1  0  0  0  0
 24 57  1  0  0  0  0
 25 26  1  0  0  0  0
 25 58  1  0  0  0  0
 25 59  1  0  0  0  0
 26 21  1  0  0  0  0
 26 60  1  0  0  0  0
 26 61  1  0  0  0  0
 27 28  1  0  0  0  0
 27 62  1  1  0  0  0
 28 29  1  0  0  0  0
 28 63  1  0  0  0  0
 28 64  1  0  0  0  0
 29 30  1  0  0  0  0
 29 65  1  0  0  0  0
 29 66  1  0  0  0  0
 30 31  1  0  0  0  0
 30 32  1  0  0  0  0
 30 67  1  6  0  0  0
 31 68  1  0  0  0  0
 31 69  1  0  0  0  0
 31 70  1  0  0  0  0
 32 33  1  0  0  0  0
 32 71  1  0  0  0  0
 32 72  1  0  0  0  0
 33 27  1  0  0  0  0
 33 73  1  0  0  0  0
 33 74  1  0  0  0  0
M  CHG  2  27   1  30   1
M  END
>  <minimizedAffinity>
-7.75169

$$$$

 OpenBabel09092411003D

 40 41  0  0  0  0  0  0  0  0999 V2000
   -0.1361  -51.7954   19.6641 C   0  0  0  0  0  0  0  0  0  0  0  0
    0.9036  -51.6932   18.5878 C   0  0  0  0  0  0  0  0  0  0  0  0
    2.1765  -52.4792   18.6975 C   0  0  0  0  0  0  0  0  0  0  0  0
    2.4097  -53.3674   19.8835 N   0  0  0  0  0  0  0  0  0  0  0  0
    1.3700  -53.4696   20.9598 C   0  0  0  0  0  0  0  0  0  0  0  0
    0.0971  -52.6836   20.8501 C   0  0  0  0  0  0  0  0  0  0  0  0
   -1.6531  -49.8459   20.4690 N   0  0  0  0  0  0  0  0  0  0  0  0
   -2.9259  -49.0599   20.3593 C   0  0  0  0  0  0  0  0  0  0  0  0
   -1.4089  -51.0094   19.5544 C   0  0  0  0  0  0  0  0  0  0  0  0
   -2.4376  -51.3870   18.5302 O   0  0  0  0  0  0  0  0  0  0  0  0
   -0.9498  -49.5654   22.9543 C   0  0  0  0  0  0  0  0  0  0  0  0
   -0.6243  -49.4682   21.4933 C   0  0  0  0  0  0  0  0  0  0  0  0
    1.6031  -54.3578   22.1459 N   0  0  0  0  0  0  0  0  0  0  0  0
    1.1966  -53.9018   23.5158 C   0  0  0  0  0  0  0  0  0  0  0  0
    1.2310  -52.4426   23.8615 C   0  0  0  0  0  0  0  0  0  0  0  0
    0.8244  -51.9866   25.2315 C   0  0  0  0  0  0  0  0  0  0  0  0
    0.8588  -50.5274   25.5772 F   0  0  0  0  0  0  0  0  0  0  0  0
    0.3834  -52.9898   26.2557 C   0  0  0  0  0  0  0  0  0  0  0  0
    0.3490  -54.4491   25.9100 C   0  0  0  0  0  0  0  0  0  0  0  0
   -0.0920  -55.4523   26.9343 F   0  0  0  0  0  0  0  0  0  0  0  0
    0.7556  -54.9051   24.5401 C   0  0  0  0  0  0  0  0  0  0  0  0
   -0.0232  -52.5338   27.6257 O   0  0  0  0  0  0  0  0  0  0  0  0
   -1.4712  -52.5338   28.0171 C   0  0  0  0  0  0  0  0  0  0  0  0
    0.7432  -51.0821   17.7718 H   0  0  0  0  0  0  0  0  0  0  0  0
    2.8918  -52.4089   17.9570 H   0  0  0  0  0  0  0  0  0  0  0  0
   -0.6182  -52.7539   21.5906 H   0  0  0  0  0  0  0  0  0  0  0  0
   -2.9239  -48.2746   21.0861 H   0  0  0  0  0  0  0  0  0  0  0  0
   -3.7604  -49.7062   20.5347 H   0  0  0  0  0  0  0  0  0  0  0  0
   -3.0013  -48.6382   19.3788 H   0  0  0  0  0  0  0  0  0  0  0  0
   -0.1020  -49.2575   23.5299 H   0  0  0  0  0  0  0  0  0  0  0  0
   -1.1978  -50.5774   23.1979 H   0  0  0  0  0  0  0  0  0  0  0  0
   -1.7818  -48.9307   23.1773 H   0  0  0  0  0  0  0  0  0  0  0  0
    0.2254  -50.0960   21.3237 H   0  0  0  0  0  0  0  0  0  0  0  0
   -0.4978  -48.4170   21.3389 H   0  0  0  0  0  0  0  0  0  0  0  0
    2.0229  -55.2401   22.0252 H   0  0  0  0  0  0  0  0  0  0  0  0
    1.5344  -51.7524   23.1568 H   0  0  0  0  0  0  0  0  0  0  0  0
    0.7320  -55.9090   24.3023 H   0  0  0  0  0  0  0  0  0  0  0  0
   -1.5690  -52.1797   29.0221 H   0  0  0  0  0  0  0  0  0  0  0  0
   -1.8587  -53.5289   27.9503 H   0  0  0  0  0  0  0  0  0  0  0  0
   -2.0188  -51.8928   27.3582 H   0  0  0  0  0  0  0  0  0  0  0  0
  1  2  2  0  0  0  0
  2  3  1  0  0  0  0
  2 24  1  0  0  0  0
  3  4  2  0  0  0  0
  3 25  1  0  0  0  0
  4  5  1  0  0  0  0
  5 13  1  0  0  0  0
  5  6  2  0  0  0  0
  6  1  1  0  0  0  0
  6 26  1  0  0  0  0
  7  8  1  0  0  0  0
  7  9  1  0  0  0  0
  8 27  1  0  0  0  0
  8 28  1  0  0  0  0
  8 29  1  0  0  0  0
  9 10  2  0  0  0  0
  9  1  1  0  0  0  0
 11 12  1  0  0  0  0
 11 30  1  0  0  0  0
 11 31  1  0  0  0  0
 11 32  1  0  0  0  0
 12  7  1  0  0  0  0
 12 33  1  0  0  0  0
 12 34  1  0  0  0  0
 13 14  1  0  0  0  0
 13 35  1  0  0  0  0
 14 15  2  0  0  0  0
 15 16  1  0  0  0  0
 15 36  1  0  0  0  0
 16 17  1  0  0  0  0
 16 18  2  0  0  0  0
 18 22  1  0  0  0  0
 18 19  1  0  0  0  0
 19 20  1  0  0  0  0
 19 21  2  0  0  0  0
 21 14  1  0  0  0  0
 21 37  1  0  0  0  0
 22 23  1  0  0  0  0
 23 38  1  0  0  0  0
 23 39  1  0  0  0  0
 23 40  1  0  0  0  0
M  END
>  <minimizedAffinity>
-6.77548

$$$$

 OpenBabel09092411003D

 47 49  0  0  0  0  0  0  0  0999 V2000
   -3.4611  -51.1771   24.7943 C   0  0  0  0  0  0  0  0  0  0  0  0
   -3.4677  -51.8201   26.1495 C   0  0  0  0  0  0  0  0  0  0  0  0
   -2.1757  -52.2326   26.7902 C   0  0  0  0  0  0  0  0  0  0  0  0
   -2.1824  -52.8756   28.1455 N   0  0  0  0  0  0  0  0  0  0  0  0
   -0.8771  -52.0022   26.0758 C   0  0  0  0  0  0  0  0  0  0  0  0
   -0.8704  -51.3593   24.7206 C   0  0  0  0  0  0  0  0  0  0  0  0
   -2.1624  -50.9467   24.0798 C   0  0  0  0  0  0  0  0  0  0  0  0
   -6.6291  -49.0015   23.8044 C   0  0  0  0  0  0  0  0  0  0  0  0
   -5.3372  -49.4140   24.4452 N   0  0  0  0  0  0  0  0  0  0  0  0
   -4.6293  -48.4761   25.3775 C   0  0  0  0  0  0  0  0  0  0  0  0
   -4.7530  -50.7645   24.1535 C   0  0  0  0  0  0  0  0  0  0  0  0
   -5.4608  -51.7024   23.2212 O   0  0  0  0  0  0  0  0  0  0  0  0
    0.4283  -51.1289   24.0062 N   0  0  0  0  0  0  0  0  0  0  0  0
    0.7135  -51.8446   22.7191 C   0  0  0  0  0  0  0  0  0  0  0  0
    1.1124  -53.2904   22.7374 C   0  0  0  0  0  0  0  0  0  0  0  0
    1.3976  -54.0061   21.4504 C   0  0  0  0  0  0  0  0  0  0  0  0
    1.2838  -53.2759   20.1451 C   0  0  0  0  0  0  0  0  0  0  0  0
    0.8848  -51.8301   20.1268 C   0  0  0  0  0  0  0  0  0  0  0  0
    0.5997  -51.1144   21.4138 C   0  0  0  0  0  0  0  0  0  0  0  0
    0.2300  -49.6984   21.0847 O   0  0  0  0  0  0  0  0  0  0  0  0
    0.2867  -49.5389   19.5943 C   0  0  0  0  0  0  0  0  0  0  0  0
    0.6914  -50.8564   19.0023 C   0  0  0  0  0  0  0  0  0  0  0  0
    0.5776  -50.1262   17.6970 C   0  0  0  0  0  0  0  0  0  0  0  0
    1.0724  -52.0212   18.1373 C   0  0  0  0  0  0  0  0  0  0  0  0
   -4.3612  -51.9787   26.6411 H   0  0  0  0  0  0  0  0  0  0  0  0
   -3.0348  -53.0268   28.6144 H   0  0  0  0  0  0  0  0  0  0  0  0
   -1.3344  -53.1464   28.5661 H   0  0  0  0  0  0  0  0  0  0  0  0
    0.0118  -52.2860   26.5167 H   0  0  0  0  0  0  0  0  0  0  0  0
   -2.1578  -50.5043   23.1474 H   0  0  0  0  0  0  0  0  0  0  0  0
   -6.8883  -48.0149   24.1273 H   0  0  0  0  0  0  0  0  0  0  0  0
   -7.4022  -49.6845   24.0886 H   0  0  0  0  0  0  0  0  0  0  0  0
   -6.5183  -49.0109   22.7402 H   0  0  0  0  0  0  0  0  0  0  0  0
   -5.1895  -47.5685   25.4637 H   0  0  0  0  0  0  0  0  0  0  0  0
   -3.6549  -48.2586   24.9927 H   0  0  0  0  0  0  0  0  0  0  0  0
   -4.5385  -48.9321   26.3412 H   0  0  0  0  0  0  0  0  0  0  0  0
    1.0935  -50.5080   24.3820 H   0  0  0  0  0  0  0  0  0  0  0  0
    1.1906  -53.7928   23.6355 H   0  0  0  0  0  0  0  0  0  0  0  0
    1.6721  -55.0008   21.4630 H   0  0  0  0  0  0  0  0  0  0  0  0
    1.4800  -53.7683   19.2596 H   0  0  0  0  0  0  0  0  0  0  0  0
    1.0050  -48.7889   19.3364 H   0  0  0  0  0  0  0  0  0  0  0  0
   -0.6682  -49.2389   19.2159 H   0  0  0  0  0  0  0  0  0  0  0  0
    0.2850  -49.1133   17.8793 H   0  0  0  0  0  0  0  0  0  0  0  0
   -0.1569  -50.6047   17.0835 H   0  0  0  0  0  0  0  0  0  0  0  0
    1.5235  -50.1397   17.1971 H   0  0  0  0  0  0  0  0  0  0  0  0
    1.0591  -51.7220   17.1101 H   0  0  0  0  0  0  0  0  0  0  0  0
    0.3747  -52.8188   18.2855 H   0  0  0  0  0  0  0  0  0  0  0  0
    2.0551  -52.3536   18.3993 H   0  0  0  0  0  0  0  0  0  0  0  0
  1  2  2  0  0  0  0
  2  3  1  0  0  0  0
  2 25  1  0  0  0  0
  3  4  1  0  0  0  0
  3  5  2  0  0  0  0
  4 26  1  0  0  0  0
  4 27  1  0  0  0  0
  5  6  1  0  0  0  0
  5 28  1  0  0  0  0
  6 13  1  0  0  0  0
  6  7  2  0  0  0  0
  7  1  1  0  0  0  0
  7 29  1  0  0  0  0
  8  9  1  0  0  0  0
  8 30  1  0  0  0  0
  8 31  1  0  0  0  0
  8 32  1  0  0  0  0
  9 10  1  0  0  0  0
  9 11  1  0  0  0  0
 10 33  1  0  0  0  0
 10 34  1  0  0  0  0
 10 35  1  0  0  0  0
 11 12  2  0  0  0  0
 11  1  1  0  0  0  0
 13 14  1  0  0  0  0
 13 36  1  0  0  0  0
 14 15  2  0  0  0  0
 15 16  1  0  0  0  0
 15 37  1  0  0  0  0
 16 17  2  0  0  0  0
 16 38  1  0  0  0  0
 17 18  1  0  0  0  0
 17 39  1  0  0  0  0
 18 19  2  0  0  0  0
 19 20  1  0  0  0  0
 19 14  1  0  0  0  0
 20 21  1  0  0  0  0
 21 22  1  0  0  0  0
 21 40  1  0  0  0  0
 21 41  1  0  0  0  0
 22 23  1  0  0  0  0
 22 24  1  0  0  0  0
 22 18  1  0  0  0  0
 23 42  1  0  0  0  0
 23 43  1  0  0  0  0
 23 44  1  0  0  0  0
 24 45  1  0  0  0  0
 24 46  1  0  0  0  0
 24 47  1  0  0  0  0
M  END
>  <minimizedAffinity>
-7.76332

$$$$

 OpenBabel09092411003D

 56 57  0  0  0  0  0  0  0  0999 V2000
   -0.6396  -49.1816   21.6462 C   0  0  0  0  0  0  0  0  0  0  0  0
   -0.4299  -49.0251   20.1693 C   0  0  0  0  0  0  0  0  0  0  0  0
   -0.9218  -47.7937   19.4682 C   0  0  0  0  0  0  0  0  0  0  0  0
   -1.6234  -46.7186   20.2441 C   0  0  0  0  0  0  0  0  0  0  0  0
   -1.8331  -46.8751   21.7211 C   0  0  0  0  0  0  0  0  0  0  0  0
   -1.3412  -48.1066   22.4221 C   0  0  0  0  0  0  0  0  0  0  0  0
    0.8360  -52.8760   23.7495 C   0  0  0  0  0  0  0  0  0  0  0  0
    0.8387  -52.8146   22.2508 C   0  0  0  0  0  0  0  0  0  0  0  0
    1.3333  -53.9848   21.4531 C   0  0  0  0  0  0  0  0  0  0  0  0
    0.3468  -51.5832   21.5497 C   0  0  0  0  0  0  0  0  0  0  0  0
   -0.1478  -50.4131   22.3473 C   0  0  0  0  0  0  0  0  0  0  0  0
   -0.1505  -50.4745   23.8460 C   0  0  0  0  0  0  0  0  0  0  0  0
    0.3414  -51.7060   24.5471 C   0  0  0  0  0  0  0  0  0  0  0  0
    0.3387  -51.7673   26.0459 C   0  0  0  0  0  0  0  0  0  0  0  0
   -0.9344  -52.0627   26.7821 O   0  0  0  0  0  0  0  0  0  0  0  0
    1.6090  -51.5333   26.8084 N   0  0  0  0  0  0  0  0  0  0  0  0
    1.6064  -51.5946   28.3071 C   0  0  0  0  0  0  0  0  0  0  0  0
    2.8821  -51.2379   26.0721 C   0  0  0  0  0  0  0  0  0  0  0  0
    0.3789  -54.9373   25.2635 C   0  0  0  0  0  0  0  0  0  0  0  0
    1.3279  -54.1075   24.4506 O   0  0  0  0  0  0  0  0  0  0  0  0
   -0.7121  -47.6372   17.9911 N   0  0  0  0  0  0  0  0  0  0  0  0
   -1.6727  -48.2668   17.0264 C   0  0  0  0  0  0  0  0  0  0  0  0
   -1.4630  -48.1104   15.5493 C   0  0  0  0  0  0  0  0  0  0  0  0
   -2.8431  -49.0528   17.5386 O   0  0  0  0  0  0  0  0  0  0  0  0
   -2.5347  -45.8000   22.4970 C   0  0  0  0  0  0  0  0  0  0  0  0
   -1.7543  -44.6470   23.0551 O   0  0  0  0  0  0  0  0  0  0  0  0
   -4.0167  -45.8780   22.7149 N   0  0  0  0  0  0  0  0  0  0  0  0
   -4.7183  -44.8031   23.4909 C   0  0  0  0  0  0  0  0  0  0  0  0
   -4.7972  -47.0311   22.1568 C   0  0  0  0  0  0  0  0  0  0  0  0
    0.0528  -49.7647   19.6355 H   0  0  0  0  0  0  0  0  0  0  0  0
   -1.9618  -45.8713   19.7618 H   0  0  0  0  0  0  0  0  0  0  0  0
   -1.4855  -48.2143   23.4383 H   0  0  0  0  0  0  0  0  0  0  0  0
    1.6409  -54.7650   22.1176 H   0  0  0  0  0  0  0  0  0  0  0  0
    2.1641  -53.6807   20.8513 H   0  0  0  0  0  0  0  0  0  0  0  0
    0.5477  -54.3434   20.8214 H   0  0  0  0  0  0  0  0  0  0  0  0
    0.3487  -51.5410   20.5186 H   0  0  0  0  0  0  0  0  0  0  0  0
   -0.4908  -49.6695   24.3948 H   0  0  0  0  0  0  0  0  0  0  0  0
    0.6182  -51.8148   28.6533 H   0  0  0  0  0  0  0  0  0  0  0  0
    1.9213  -50.6518   28.7032 H   0  0  0  0  0  0  0  0  0  0  0  0
    2.2778  -52.3610   28.6339 H   0  0  0  0  0  0  0  0  0  0  0  0
    2.6926  -51.2347   25.0190 H   0  0  0  0  0  0  0  0  0  0  0  0
    3.6092  -51.9887   26.3014 H   0  0  0  0  0  0  0  0  0  0  0  0
    3.2527  -50.2796   26.3707 H   0  0  0  0  0  0  0  0  0  0  0  0
    0.9037  -55.7687   25.6856 H   0  0  0  0  0  0  0  0  0  0  0  0
   -0.4100  -55.2951   24.6354 H   0  0  0  0  0  0  0  0  0  0  0  0
   -0.0340  -54.3400   26.0494 H   0  0  0  0  0  0  0  0  0  0  0  0
    0.0560  -47.1213   17.6549 H   0  0  0  0  0  0  0  0  0  0  0  0
   -0.5857  -47.5236   15.3738 H   0  0  0  0  0  0  0  0  0  0  0  0
   -2.3115  -47.6211   15.1184 H   0  0  0  0  0  0  0  0  0  0  0  0
   -1.3423  -49.0749   15.1021 H   0  0  0  0  0  0  0  0  0  0  0  0
   -4.0067  -44.0695   23.8075 H   0  0  0  0  0  0  0  0  0  0  0  0
   -5.1922  -45.2336   24.3482 H   0  0  0  0  0  0  0  0  0  0  0  0
   -5.4566  -44.3394   22.8705 H   0  0  0  0  0  0  0  0  0  0  0  0
   -4.1349  -47.6924   21.6381 H   0  0  0  0  0  0  0  0  0  0  0  0
   -5.5389  -46.6646   21.4782 H   0  0  0  0  0  0  0  0  0  0  0  0
   -5.2745  -47.5588   22.9559 H   0  0  0  0  0  0  0  0  0  0  0  0
  1  2  2  0  0  0  0
  2  3  1  0  0  0  0
  2 30  1  0  0  0  0
  3 21  1  0  0  0  0
  3  4  2  0  0  0  0
  4  5  1  0  0  0  0
  4 31  1  0  0  0  0
  5 25  1  0  0  0  0
  5  6  2  0  0  0  0
  6  1  1  0  0  0  0
  6 32  1  0  0  0  0
  7  8  2  0  0  0  0
  8  9  1  0  0  0  0
  8 10  1  0  0  0  0
  9 33  1  0  0  0  0
  9 34  1  0  0  0  0
  9 35  1  0  0  0  0
 10 11  2  0  0  0  0
 10 36  1  0  0  0  0
 11  1  1  0  0  0  0
 11 12  1  0  0  0  0
 12 13  2  0  0  0  0
 12 37  1  0  0  0  0
 13 14  1  0  0  0  0
 13  7  1  0  0  0  0
 14 15  2  0  0  0  0
 14 16  1  0  0  0  0
 16 17  1  0  0  0  0
 16 18  1  0  0  0  0
 17 38  1  0  0  0  0
 17 39  1  0  0  0  0
 17 40  1  0  0  0  0
 18 41  1  0  0  0  0
 18 42  1  0  0  0  0
 18 43  1  0  0  0  0
 19 20  1  0  0  0  0
 19 44  1  0  0  0  0
 19 45  1  0  0  0  0
 19 46  1  0  0  0  0
 20  7  1  0  0  0  0
 21 22  1  0  0  0  0
 21 47  1  0  0  0  0
 22 23  1  0  0  0  0
 22 24  2  0  0  0  0
 23 48  1  0  0  0  0
 23 49  1  0  0  0  0
 23 50  1  0  0  0  0
 25 26  2  0  0  0  0
 25 27  1  0  0  0  0
 27 28  1  0  0  0  0
 27 29  1  0  0  0  0
 28 51  1  0  0  0  0
 28 52  1  0  0  0  0
 28 53  1  0  0  0  0
 29 54  1  0  0  0  0
 29 55  1  0  0  0  0
 29 56  1  0  0  0  0
M  END
>  <minimizedAffinity>
-7.42634

$$$$

 OpenBabel09092411003D

 59 60  0  0  0  0  0  0  0  0999 V2000
   -1.1656  -50.4786   17.9084 C   0  0  0  0  0  0  0  0  0  0  0  0
   -0.9466  -51.0240   19.2884 N   0  0  0  0  0  0  0  0  0  0  0  0
    0.3061  -51.7864   19.6035 C   0  0  0  0  0  0  0  0  0  0  0  0
    1.3399  -52.0034   18.5386 C   0  0  0  0  0  0  0  0  0  0  0  0
    1.1210  -51.4580   17.1586 C   0  0  0  0  0  0  0  0  0  0  0  0
   -0.1318  -50.6956   16.8435 N   0  0  0  0  0  0  0  0  0  0  0  0
    0.5251  -52.3318   20.9836 C   0  0  0  0  0  0  0  0  0  0  0  0
    1.2033  -53.6570   21.1675 C   0  0  0  0  0  0  0  0  0  0  0  0
    1.4223  -54.2024   22.5475 C   0  0  0  0  0  0  0  0  0  0  0  0
    0.9630  -53.4226   23.7438 C   0  0  0  0  0  0  0  0  0  0  0  0
    0.2847  -52.0974   23.5600 C   0  0  0  0  0  0  0  0  0  0  0  0
    0.0658  -51.5520   22.1798 C   0  0  0  0  0  0  0  0  0  0  0  0
   -0.1746  -51.3177   24.7562 C   0  0  0  0  0  0  0  0  0  0  0  0
    1.2355  -50.8723   25.0073 C   0  0  0  0  0  0  0  0  0  0  0  0
   -1.5847  -51.7630   24.5050 C   0  0  0  0  0  0  0  0  0  0  0  0
   -0.6339  -50.5379   25.9523 C   0  0  0  0  0  0  0  0  0  0  0  0
    1.1819  -53.9681   25.1238 O   0  0  0  0  0  0  0  0  0  0  0  0
    0.0945  -54.7457   25.8042 C   0  0  0  0  0  0  0  0  0  0  0  0
    2.1548  -51.6750   16.0936 N   0  0  0  0  0  0  0  0  0  0  0  0
    1.9306  -51.1396   14.7104 C   0  0  0  0  0  0  0  0  0  0  0  0
    3.4129  -52.4274   16.4117 C   0  0  0  0  0  0  0  0  0  0  0  0
   -2.4184  -49.7162   17.5933 N   0  0  0  0  0  0  0  0  0  0  0  0
   -3.4364  -49.4697   18.6669 C   0  0  0  0  0  0  0  0  0  0  0  0
   -2.6532  -49.2004   16.2045 C   0  0  0  0  0  0  0  0  0  0  0  0
   -1.9564  -51.1920   12.8432 C   0  0  0  0  0  0  0  0  0  0  0  0
   -1.7874  -50.2304   13.9819 N   0  0  0  0  0  0  0  0  0  0  0  0
   -2.8222  -50.1621   15.0658 C   0  0  0  0  0  0  0  0  0  0  0  0
   -4.0259  -51.0554   15.0109 O   0  0  0  0  0  0  0  0  0  0  0  0
    2.2018  -52.5280   18.7554 H   0  0  0  0  0  0  0  0  0  0  0  0
    1.5192  -54.1935   20.3445 H   0  0  0  0  0  0  0  0  0  0  0  0
    1.8890  -55.1141   22.6740 H   0  0  0  0  0  0  0  0  0  0  0  0
   -0.4008  -50.6402   22.0533 H   0  0  0  0  0  0  0  0  0  0  0  0
    1.8797  -51.2909   24.2625 H   0  0  0  0  0  0  0  0  0  0  0  0
    1.5472  -51.2039   25.9757 H   0  0  0  0  0  0  0  0  0  0  0  0
    1.2855  -49.8044   24.9628 H   0  0  0  0  0  0  0  0  0  0  0  0
   -1.6111  -52.3934   23.6408 H   0  0  0  0  0  0  0  0  0  0  0  0
   -2.2052  -50.9069   24.3411 H   0  0  0  0  0  0  0  0  0  0  0  0
   -1.9437  -52.3064   25.3539 H   0  0  0  0  0  0  0  0  0  0  0  0
    0.2053  -50.0530   26.4057 H   0  0  0  0  0  0  0  0  0  0  0  0
   -1.0866  -51.2020   26.6587 H   0  0  0  0  0  0  0  0  0  0  0  0
   -1.3481  -49.8024   25.6458 H   0  0  0  0  0  0  0  0  0  0  0  0
    0.4282  -55.0523   26.7735 H   0  0  0  0  0  0  0  0  0  0  0  0
   -0.1455  -55.6094   25.2199 H   0  0  0  0  0  0  0  0  0  0  0  0
   -0.7749  -54.1301   25.9045 H   0  0  0  0  0  0  0  0  0  0  0  0
    0.9874  -50.6359   14.6715 H   0  0  0  0  0  0  0  0  0  0  0  0
    1.9320  -51.9487   14.0102 H   0  0  0  0  0  0  0  0  0  0  0  0
    2.7125  -50.4523   14.4629 H   0  0  0  0  0  0  0  0  0  0  0  0
    3.3977  -52.7300   17.4379 H   0  0  0  0  0  0  0  0  0  0  0  0
    4.2594  -51.7963   16.2384 H   0  0  0  0  0  0  0  0  0  0  0  0
    3.4790  -53.2926   15.7857 H   0  0  0  0  0  0  0  0  0  0  0  0
   -4.2560  -48.9147   18.2606 H   0  0  0  0  0  0  0  0  0  0  0  0
   -2.9878  -48.9123   19.4625 H   0  0  0  0  0  0  0  0  0  0  0  0
   -3.7915  -50.4062   19.0435 H   0  0  0  0  0  0  0  0  0  0  0  0
   -3.5425  -48.6065   16.2418 H   0  0  0  0  0  0  0  0  0  0  0  0
   -1.7370  -48.7000   15.9698 H   0  0  0  0  0  0  0  0  0  0  0  0
   -1.1274  -51.1003   12.1729 H   0  0  0  0  0  0  0  0  0  0  0  0
   -2.8636  -50.9704   12.3209 H   0  0  0  0  0  0  0  0  0  0  0  0
   -1.9987  -52.1912   13.2235 H   0  0  0  0  0  0  0  0  0  0  0  0
   -0.9974  -49.6441   14.0179 H   0  0  0  0  0  0  0  0  0  0  0  0
  1  2  2  0  0  0  0
  2  3  1  0  0  0  0
  3  7  1  0  0  0  0
  3  4  2  0  0  0  0
  4  5  1  0  0  0  0
  4 29  1  0  0  0  0
  5 19  1  0  0  0  0
  5  6  2  0  0  0  0
  6  1  1  0  0  0  0
  7  8  2  0  0  0  0
  8  9  1  0  0  0  0
  8 30  1  0  0  0  0
  9 10  2  0  0  0  0
  9 31  1  0  0  0  0
 10 17  1  0  0  0  0
 10 11  1  0  0  0  0
 11 13  1  0  0  0  0
 11 12  2  0  0  0  0
 12  7  1  0  0  0  0
 12 32  1  0  0  0  0
 13 14  1  0  0  0  0
 13 15  1  0  0  0  0
 13 16  1  0  0  0  0
 14 33  1  0  0  0  0
 14 34  1  0  0  0  0
 14 35  1  0  0  0  0
 15 36  1  0  0  0  0
 15 37  1  0  0  0  0
 15 38  1  0  0  0  0
 16 39  1  0  0  0  0
 16 40  1  0  0  0  0
 16 41  1  0  0  0  0
 17 18  1  0  0  0  0
 18 42  1  0  0  0  0
 18 43  1  0  0  0  0
 18 44  1  0  0  0  0
 19 20  1  0  0  0  0
 19 21  1  0  0  0  0
 20 45  1  0  0  0  0
 20 46  1  0  0  0  0
 20 47  1  0  0  0  0
 21 48  1  0  0  0  0
 21 49  1  0  0  0  0
 21 50  1  0  0  0  0
 22 23  1  0  0  0  0
 22  1  1  0  0  0  0
 23 51  1  0  0  0  0
 23 52  1  0  0  0  0
 23 53  1  0  0  0  0
 24 22  1  0  0  0  0
 24 54  1  0  0  0  0
 24 55  1  0  0  0  0
 25 26  1  0  0  0  0
 25 56  1  0  0  0  0
 25 57  1  0  0  0  0
 25 58  1  0  0  0  0
 26 27  1  0  0  0  0
 26 59  1  0  0  0  0
 27 28  2  0  0  0  0
 27 24  1  0  0  0  0
M  END
>  <minimizedAffinity>
-7.35689

$$$$

 OpenBabel09092411003D

 52 53  0  0  0  0  0  0  0  0999 V2000
    1.2961  -51.2246   16.4520 C   0  0  0  0  0  0  0  0  0  0  0  0
    0.2054  -50.6964   17.3360 C   0  0  0  0  0  0  0  0  0  0  0  0
    0.1694  -51.0709   18.7880 C   0  0  0  0  0  0  0  0  0  0  0  0
    1.2240  -51.9736   19.3562 C   0  0  0  0  0  0  0  0  0  0  0  0
    2.3147  -52.5018   18.4723 C   0  0  0  0  0  0  0  0  0  0  0  0
    2.3507  -52.1273   17.0202 C   0  0  0  0  0  0  0  0  0  0  0  0
    3.4415  -52.6556   16.1363 F   0  0  0  0  0  0  0  0  0  0  0  0
    1.1880  -52.3480   20.8082 C   0  0  0  0  0  0  0  0  0  0  0  0
    1.0563  -51.2816   21.8547 C   0  0  0  0  0  0  0  0  0  0  0  0
    1.0203  -51.6560   23.3068 C   0  0  0  0  0  0  0  0  0  0  0  0
    1.1159  -53.0970   23.7123 C   0  0  0  0  0  0  0  0  0  0  0  0
    1.2476  -54.1634   22.6658 C   0  0  0  0  0  0  0  0  0  0  0  0
    1.2836  -53.7890   21.2138 C   0  0  0  0  0  0  0  0  0  0  0  0
    1.0799  -53.4714   25.1644 O   0  0  0  0  0  0  0  0  0  0  0  0
   -0.2241  -53.4755   25.9058 C   0  0  0  0  0  0  0  0  0  0  0  0
   -0.7926  -52.1904   26.4304 C   0  0  0  0  0  0  0  0  0  0  0  0
   -0.2025  -51.5533   27.6535 O   0  0  0  0  0  0  0  0  0  0  0  0
   -1.9512  -51.5423   25.7319 N   0  0  0  0  0  0  0  0  0  0  0  0
   -2.5196  -50.2572   26.2566 C   0  0  0  0  0  0  0  0  0  0  0  0
   -2.5412  -52.1794   24.5089 C   0  0  0  0  0  0  0  0  0  0  0  0
    0.2656  -51.3483   14.0703 C   0  0  0  0  0  0  0  0  0  0  0  0
    1.3321  -50.8502   15.0000 O   0  0  0  0  0  0  0  0  0  0  0  0
   -0.9214  -50.5426   19.6719 C   0  0  0  0  0  0  0  0  0  0  0  0
   -1.2080  -49.0708   19.7115 N   0  3  0  0  0  0  0  0  0  0  0  0
   -0.2444  -48.1368   20.3817 C   0  0  0  0  0  0  0  0  0  0  0  0
   -2.4581  -48.5329   19.0807 C   0  0  0  0  0  0  0  0  0  0  0  0
   -0.5202  -50.0753   16.9452 H   0  0  0  0  0  0  0  0  0  0  0  0
    3.0403  -53.1228   18.8632 H   0  0  0  0  0  0  0  0  0  0  0  0
    0.9904  -50.2902   21.5757 H   0  0  0  0  0  0  0  0  0  0  0  0
    0.9298  -50.9222   24.0268 H   0  0  0  0  0  0  0  0  0  0  0  0
    1.3134  -55.1548   22.9448 H   0  0  0  0  0  0  0  0  0  0  0  0
    1.3741  -54.5228   20.4938 H   0  0  0  0  0  0  0  0  0  0  0  0
   -0.0988  -54.1242   26.7475 H   0  0  0  0  0  0  0  0  0  0  0  0
   -0.9310  -53.7702   25.1585 H   0  0  0  0  0  0  0  0  0  0  0  0
   -1.9758  -49.9559   27.1274 H   0  0  0  0  0  0  0  0  0  0  0  0
   -3.5491  -50.4000   26.5107 H   0  0  0  0  0  0  0  0  0  0  0  0
   -2.4394  -49.4989   25.5059 H   0  0  0  0  0  0  0  0  0  0  0  0
   -2.0109  -53.0815   24.2856 H   0  0  0  0  0  0  0  0  0  0  0  0
   -2.4619  -51.5050   23.6819 H   0  0  0  0  0  0  0  0  0  0  0  0
   -3.5717  -52.4061   24.6867 H   0  0  0  0  0  0  0  0  0  0  0  0
    0.4542  -50.9825   13.0826 H   0  0  0  0  0  0  0  0  0  0  0  0
   -0.6895  -50.9995   14.4036 H   0  0  0  0  0  0  0  0  0  0  0  0
    0.2713  -52.4182   14.0615 H   0  0  0  0  0  0  0  0  0  0  0  0
   -0.6787  -50.8370   20.6716 H   0  0  0  0  0  0  0  0  0  0  0  0
   -1.8093  -50.9545   19.2396 H   0  0  0  0  0  0  0  0  0  0  0  0
   -1.6147  -49.3238   20.6120 H   0  0  0  0  0  0  0  0  0  0  0  0
    0.3765  -47.6746   19.6430 H   0  0  0  0  0  0  0  0  0  0  0  0
    0.3660  -48.6860   21.0678 H   0  0  0  0  0  0  0  0  0  0  0  0
   -0.7884  -47.3836   20.9124 H   0  0  0  0  0  0  0  0  0  0  0  0
   -2.2413  -48.1993   18.0874 H   0  0  0  0  0  0  0  0  0  0  0  0
   -2.8254  -47.7120   19.6604 H   0  0  0  0  0  0  0  0  0  0  0  0
   -3.1994  -49.3037   19.0443 H   0  0  0  0  0  0  0  0  0  0  0  0
  1  2  2  0  0  0  0
  2  3  1  0  0  0  0
  2 27  1  0  0  0  0
  3 23  1  0  0  0  0
  3  4  2  0  0  0  0
  4  8  1  0  0  0  0
  4  5  1  0  0  0  0
  5  6  2  0  0  0  0
  5 28  1  0  0  0  0
  6  7  1  0  0  0  0
  6  1  1  0  0  0  0
  8  9  2  0  0  0  0
  9 10  1  0  0  0  0
  9 29  1  0  0  0  0
 10 11  2  0  0  0  0
 10 30  1  0  0  0  0
 11 14  1  0  0  0  0
 11 12  1  0  0  0  0
 12 13  2  0  0  0  0
 12 31  1  0  0  0  0
 13  8  1  0  0  0  0
 13 32  1  0  0  0  0
 14 15  1  0  0  0  0
 15 16  1  0  0  0  0
 15 33  1  0  0  0  0
 15 34  1  0  0  0  0
 16 17  2  0  0  0  0
 16 18  1  0  0  0  0
 18 19  1  0  0  0  0
 18 20  1  0  0  0  0
 19 35  1  0  0  0  0
 19 36  1  0  0  0  0
 19 37  1  0  0  0  0
 20 38  1  0  0  0  0
 20 39  1  0  0  0  0
 20 40  1  0  0  0  0
 21 22  1  0  0  0  0
 21 41  1  0  0  0  0
 21 42  1  0  0  0  0
 21 43  1  0  0  0  0
 22  1  1  0  0  0  0
 23 24  1  0  0  0  0
 23 44  1  0  0  0  0
 23 45  1  0  0  0  0
 24 25  1  0  0  0  0
 24 26  1  0  0  0  0
 24 46  1  0  0  0  0
 25 47  1  0  0  0  0
 25 48  1  0  0  0  0
 25 49  1  0  0  0  0
 26 50  1  0  0  0  0
 26 51  1  0  0  0  0
 26 52  1  0  0  0  0
M  CHG  1  24   1
M  END
>  <minimizedAffinity>
-7.45698

$$$$

 OpenBabel09092411003D

 36 38  0  0  0  0  0  0  0  0999 V2000
   -0.2129  -50.0622   21.2535 C   0  0  0  0  0  0  0  0  0  0  0  0
   -0.6186  -49.1015   20.1754 C   0  0  0  0  0  0  0  0  0  0  0  0
   -0.1633  -49.3227   18.7635 C   0  0  0  0  0  0  0  0  0  0  0  0
    0.6978  -50.5047   18.4296 C   0  0  0  0  0  0  0  0  0  0  0  0
    1.1035  -51.4655   19.5077 C   0  0  0  0  0  0  0  0  0  0  0  0
    0.6481  -51.2442   20.9196 C   0  0  0  0  0  0  0  0  0  0  0  0
    1.9645  -52.6475   19.1738 C   0  0  0  0  0  0  0  0  0  0  0  0
    2.3702  -53.6083   20.2519 O   0  0  0  0  0  0  0  0  0  0  0  0
    2.4198  -52.8688   17.7619 N   0  0  0  0  0  0  0  0  0  0  0  0
    2.0141  -51.9080   16.6837 C   0  0  0  0  0  0  0  0  0  0  0  0
    1.1531  -50.7260   17.0176 C   0  0  0  0  0  0  0  0  0  0  0  0
   -0.6682  -49.8410   22.6656 N   0  0  0  0  0  0  0  0  0  0  0  0
    0.4538  -52.7848   25.8788 C   0  0  0  0  0  0  0  0  0  0  0  0
   -0.8286  -52.9557   25.1197 C   0  0  0  0  0  0  0  0  0  0  0  0
   -1.2026  -51.9744   24.0486 C   0  0  0  0  0  0  0  0  0  0  0  0
   -0.2942  -50.8222   23.7366 C   0  0  0  0  0  0  0  0  0  0  0  0
    0.9882  -50.6513   24.4958 C   0  0  0  0  0  0  0  0  0  0  0  0
    1.3622  -51.6326   25.5669 C   0  0  0  0  0  0  0  0  0  0  0  0
    2.6445  -51.4616   26.3260 Cl  0  0  0  0  0  0  0  0  0  0  0  0
    0.0477  -55.0374   27.1079 C   0  0  0  0  0  0  0  0  0  0  0  0
    0.8278  -53.7660   26.9499 O   0  0  0  0  0  0  0  0  0  0  0  0
   -1.2110  -48.2883   20.4051 H   0  0  0  0  0  0  0  0  0  0  0  0
   -0.4425  -48.6617   18.0218 H   0  0  0  0  0  0  0  0  0  0  0  0
    0.9272  -51.9052   21.6614 H   0  0  0  0  0  0  0  0  0  0  0  0
    2.9849  -53.6446   17.5428 H   0  0  0  0  0  0  0  0  0  0  0  0
    1.4864  -52.4761   15.9463 H   0  0  0  0  0  0  0  0  0  0  0  0
    2.9413  -51.4618   16.3902 H   0  0  0  0  0  0  0  0  0  0  0  0
    0.2708  -50.8073   16.4177 H   0  0  0  0  0  0  0  0  0  0  0  0
    1.7980  -49.8922   16.8336 H   0  0  0  0  0  0  0  0  0  0  0  0
   -1.2125  -49.0518   22.8894 H   0  0  0  0  0  0  0  0  0  0  0  0
   -1.4536  -53.7484   25.3343 H   0  0  0  0  0  0  0  0  0  0  0  0
   -2.0849  -52.0920   23.5263 H   0  0  0  0  0  0  0  0  0  0  0  0
    1.6132  -49.8586   24.2812 H   0  0  0  0  0  0  0  0  0  0  0  0
    0.4556  -55.6080   27.9159 H   0  0  0  0  0  0  0  0  0  0  0  0
    0.1066  -55.6067   26.2038 H   0  0  0  0  0  0  0  0  0  0  0  0
   -0.9756  -54.8044   27.3166 H   0  0  0  0  0  0  0  0  0  0  0  0
  1  2  2  0  0  0  0
  2  3  1  0  0  0  0
  2 22  1  0  0  0  0
  3  4  2  0  0  0  0
  3 23  1  0  0  0  0
  4  5  1  0  0  0  0
  5  6  2  0  0  0  0
  5  7  1  0  0  0  0
  6  1  1  0  0  0  0
  6 24  1  0  0  0  0
  7  8  2  0  0  0  0
  7  9  1  0  0  0  0
  9 10  1  0  0  0  0
  9 25  1  0  0  0  0
 10 11  1  0  0  0  0
 10 26  1  0  0  0  0
 10 27  1  0  0  0  0
 11  4  1  0  0  0  0
 11 28  1  0  0  0  0
 11 29  1  0  0  0  0
 12  1  1  0  0  0  0
 12 30  1  0  0  0  0
 13 14  2  0  0  0  0
 14 15  1  0  0  0  0
 14 31  1  0  0  0  0
 15 16  2  0  0  0  0
 15 32  1  0  0  0  0
 16 12  1  0  0  0  0
 16 17  1  0  0  0  0
 17 18  2  0  0  0  0
 17 33  1  0  0  0  0
 18 19  1  0  0  0  0
 18 13  1  0  0  0  0
 20 21  1  0  0  0  0
 20 34  1  0  0  0  0
 20 35  1  0  0  0  0
 20 36  1  0  0  0  0
 21 13  1  0  0  0  0
M  END
>  <minimizedAffinity>
-7.48040

$$$$

 OpenBabel09092411003D

 44 46  0  0  0  0  0  0  0  0999 V2000
    1.2493  -52.2656   20.7148 C   0  0  0  0  0  0  0  0  0  0  0  0
    1.5465  -53.7058   21.0107 C   0  0  0  0  0  0  0  0  0  0  0  0
    1.4048  -54.2289   22.4093 C   0  0  0  0  0  0  0  0  0  0  0  0
    0.9658  -53.3118   23.5122 C   0  0  0  0  0  0  0  0  0  0  0  0
    0.6685  -51.8717   23.2164 C   0  0  0  0  0  0  0  0  0  0  0  0
    0.8103  -51.3485   21.8177 C   0  0  0  0  0  0  0  0  0  0  0  0
    1.3910  -51.7424   19.3162 N   0  0  0  0  0  0  0  0  0  0  0  0
   -2.1439  -49.8888   17.2381 C   0  0  0  0  0  0  0  0  0  0  0  0
   -2.3546  -50.9697   18.2566 N   0  0  0  0  0  0  0  0  0  0  0  0
   -1.1763  -51.5875   18.9493 C   0  0  0  0  0  0  0  0  0  0  0  0
    0.2127  -51.1246   18.6235 C   0  0  0  0  0  0  0  0  0  0  0  0
    0.4235  -50.0437   17.6050 C   0  0  0  0  0  0  0  0  0  0  0  0
   -0.7548  -49.4259   16.9123 C   0  0  0  0  0  0  0  0  0  0  0  0
   -0.5441  -48.3450   15.8938 Cl  0  0  0  0  0  0  0  0  0  0  0  0
   -3.9062  -49.9270   15.3296 C   0  0  0  0  0  0  0  0  0  0  0  0
   -3.3222  -49.2710   16.5454 O   0  0  0  0  0  0  0  0  0  0  0  0
    0.2295  -50.9546   24.3193 C   0  0  0  0  0  0  0  0  0  0  0  0
    0.3048  -51.4087   25.7469 N   0  3  0  0  0  0  0  0  0  0  0  0
   -0.8995  -52.0131   26.4062 C   0  0  0  0  0  0  0  0  0  0  0  0
   -0.8242  -52.4672   27.8338 C   0  0  0  0  0  0  0  0  0  0  0  0
    0.4552  -52.3169   28.6021 O   0  0  0  0  0  0  0  0  0  0  0  0
    1.6594  -51.7125   27.9429 C   0  0  0  0  0  0  0  0  0  0  0  0
    1.5842  -51.2584   26.5152 C   0  0  0  0  0  0  0  0  0  0  0  0
    1.8485  -54.3368   20.2519 H   0  0  0  0  0  0  0  0  0  0  0  0
    1.6093  -55.2197   22.6128 H   0  0  0  0  0  0  0  0  0  0  0  0
    0.8683  -53.6717   24.4745 H   0  0  0  0  0  0  0  0  0  0  0  0
    0.6058  -50.3576   21.6142 H   0  0  0  0  0  0  0  0  0  0  0  0
    2.2574  -51.8045   18.8529 H   0  0  0  0  0  0  0  0  0  0  0  0
   -1.3213  -52.3311   19.6501 H   0  0  0  0  0  0  0  0  0  0  0  0
    1.3792  -49.7251   17.3809 H   0  0  0  0  0  0  0  0  0  0  0  0
   -4.7334  -49.3484   14.9747 H   0  0  0  0  0  0  0  0  0  0  0  0
   -4.2415  -50.9113   15.5818 H   0  0  0  0  0  0  0  0  0  0  0  0
   -3.1603  -49.9893   14.5649 H   0  0  0  0  0  0  0  0  0  0  0  0
   -0.7938  -50.7081   24.1271 H   0  0  0  0  0  0  0  0  0  0  0  0
    0.9435  -50.1588   24.2763 H   0  0  0  0  0  0  0  0  0  0  0  0
    0.8679  -52.1806   26.1039 H   0  0  0  0  0  0  0  0  0  0  0  0
   -1.1738  -52.8680   25.8242 H   0  0  0  0  0  0  0  0  0  0  0  0
   -1.5938  -51.1998   26.4431 H   0  0  0  0  0  0  0  0  0  0  0  0
   -1.0675  -53.5092   27.8397 H   0  0  0  0  0  0  0  0  0  0  0  0
   -1.4939  -51.8028   28.3389 H   0  0  0  0  0  0  0  0  0  0  0  0
    2.4390  -52.4436   27.9938 H   0  0  0  0  0  0  0  0  0  0  0  0
    1.8041  -50.8006   28.4837 H   0  0  0  0  0  0  0  0  0  0  0  0
    2.3328  -51.8026   25.9781 H   0  0  0  0  0  0  0  0  0  0  0  0
    1.7044  -50.1977   26.5878 H   0  0  0  0  0  0  0  0  0  0  0  0
  1  2  2  0  0  0  0
  2  3  1  0  0  0  0
  2 24  1  0  0  0  0
  3  4  2  0  0  0  0
  3 25  1  0  0  0  0
  4  5  1  0  0  0  0
  4 26  1  0  0  0  0
  5 17  1  0  0  0  0
  5  6  2  0  0  0  0
  6  1  1  0  0  0  0
  6 27  1  0  0  0  0
  7  1  1  0  0  0  0
  7 28  1  0  0  0  0
  8  9  2  0  0  0  0
  9 10  1  0  0  0  0
 10 11  2  0  0  0  0
 10 29  1  0  0  0  0
 11  7  1  0  0  0  0
 11 12  1  0  0  0  0
 12 13  2  0  0  0  0
 12 30  1  0  0  0  0
 13 14  1  0  0  0  0
 13  8  1  0  0  0  0
 15 16  1  0  0  0  0
 15 31  1  0  0  0  0
 15 32  1  0  0  0  0
 15 33  1  0  0  0  0
 16  8  1  0  0  0  0
 17 18  1  0  0  0  0
 17 34  1  0  0  0  0
 17 35  1  0  0  0  0
 18 19  1  0  0  0  0
 18 36  1  0  0  0  0
 19 20  1  0  0  0  0
 19 37  1  0  0  0  0
 19 38  1  0  0  0  0
 20 21  1  0  0  0  0
 20 39  1  0  0  0  0
 20 40  1  0  0  0  0
 21 22  1  0  0  0  0
 22 23  1  0  0  0  0
 22 41  1  0  0  0  0
 22 42  1  0  0  0  0
 23 18  1  0  0  0  0
 23 43  1  0  0  0  0
 23 44  1  0  0  0  0
M  CHG  1  18   1
M  END
>  <minimizedAffinity>
-7.28277

$$$$

 OpenBabel09092411003D

 35 37  0  0  0  0  0  0  0  0999 V2000
    0.0428  -49.9104   21.7005 N   0  0  0  0  0  0  0  0  0  0  0  0
   -0.3189  -50.7437   22.8942 C   0  0  0  0  0  0  0  0  0  0  0  0
   -1.6983  -51.3203   23.0161 C   0  0  0  0  0  0  0  0  0  0  0  0
   -2.0601  -52.1536   24.2097 C   0  0  0  0  0  0  0  0  0  0  0  0
   -1.0424  -52.4103   25.2815 C   0  0  0  0  0  0  0  0  0  0  0  0
    0.3369  -51.8337   25.1596 C   0  0  0  0  0  0  0  0  0  0  0  0
    0.6987  -51.0004   23.9659 C   0  0  0  0  0  0  0  0  0  0  0  0
    1.3545  -52.0904   26.2312 N   0  0  0  0  0  0  0  0  0  0  0  0
    0.9928  -52.9237   27.4248 C   0  0  0  0  0  0  0  0  0  0  0  0
   -0.3866  -53.5002   27.5468 C   0  0  0  0  0  0  0  0  0  0  0  0
   -1.4042  -53.2436   26.4751 O   0  0  0  0  0  0  0  0  0  0  0  0
    1.4875  -51.8920   17.9274 C   0  0  0  0  0  0  0  0  0  0  0  0
    1.6453  -52.5870   19.2474 C   0  0  0  0  0  0  0  0  0  0  0  0
    1.1637  -51.9265   20.5050 C   0  0  0  0  0  0  0  0  0  0  0  0
    0.5244  -50.5710   20.4428 C   0  0  0  0  0  0  0  0  0  0  0  0
    0.3666  -49.8760   19.1230 C   0  0  0  0  0  0  0  0  0  0  0  0
    0.8481  -50.5365   17.8652 C   0  0  0  0  0  0  0  0  0  0  0  0
    0.6903  -49.8416   16.5454 Cl  0  0  0  0  0  0  0  0  0  0  0  0
    3.3652  -52.3057   16.1802 C   0  0  0  0  0  0  0  0  0  0  0  0
    1.9690  -52.5526   16.6697 O   0  0  0  0  0  0  0  0  0  0  0  0
   -0.0359  -48.9299   21.7425 H   0  0  0  0  0  0  0  0  0  0  0  0
   -2.3984  -51.1437   22.2788 H   0  0  0  0  0  0  0  0  0  0  0  0
   -3.0091  -52.5503   24.2936 H   0  0  0  0  0  0  0  0  0  0  0  0
    1.6477  -50.6037   23.8820 H   0  0  0  0  0  0  0  0  0  0  0  0
    2.2598  -51.7120   26.1512 H   0  0  0  0  0  0  0  0  0  0  0  0
    1.1490  -52.3110   28.2880 H   0  0  0  0  0  0  0  0  0  0  0  0
    1.6125  -53.7893   27.3173 H   0  0  0  0  0  0  0  0  0  0  0  0
   -0.7986  -53.1248   28.4602 H   0  0  0  0  0  0  0  0  0  0  0  0
   -0.2192  -54.5549   27.4795 H   0  0  0  0  0  0  0  0  0  0  0  0
    2.0852  -53.5196   19.2902 H   0  0  0  0  0  0  0  0  0  0  0  0
    1.2722  -52.4047   21.4131 H   0  0  0  0  0  0  0  0  0  0  0  0
   -0.0732  -48.9434   19.0803 H   0  0  0  0  0  0  0  0  0  0  0  0
    3.5291  -52.8558   15.2772 H   0  0  0  0  0  0  0  0  0  0  0  0
    4.0654  -52.6242   16.9239 H   0  0  0  0  0  0  0  0  0  0  0  0
    3.4971  -51.2610   15.9903 H   0  0  0  0  0  0  0  0  0  0  0  0
  1  2  1  0  0  0  0
  1 21  1  0  0  0  0
  2  3  2  0  0  0  0
  3  4  1  0  0  0  0
  3 22  1  0  0  0  0
  4  5  2  0  0  0  0
  4 23  1  0  0  0  0
  5  6  1  0  0  0  0
  6  7  2  0  0  0  0
  6  8  1  0  0  0  0
  7  2  1  0  0  0  0
  7 24  1  0  0  0  0
  8  9  1  0  0  0  0
  8 25  1  0  0  0  0
  9 10  1  0  0  0  0
  9 26  1  0  0  0  0
  9 27  1  0  0  0  0
 10 11  1  0  0  0  0
 10 28  1  0  0  0  0
 10 29  1  0  0  0  0
 11  5  1  0  0  0  0
 12 13  2  0  0  0  0
 13 14  1  0  0  0  0
 13 30  1  0  0  0  0
 14 15  2  0  0  0  0
 14 31  1  0  0  0  0
 15  1  1  0  0  0  0
 15 16  1  0  0  0  0
 16 17  2  0  0  0  0
 16 32  1  0  0  0  0
 17 18  1  0  0  0  0
 17 12  1  0  0  0  0
 19 20  1  0  0  0  0
 19 33  1  0  0  0  0
 19 34  1  0  0  0  0
 19 35  1  0  0  0  0
 20 12  1  0  0  0  0
M  END
>  <minimizedAffinity>
-6.70372

$$$$

 OpenBabel09092411003D

 38 40  0  0  0  0  0  0  0  0999 V2000
    0.0049  -52.0398   21.5061 C   0  0  0  0  0  0  0  0  0  0  0  0
    1.1162  -53.0445   21.5802 C   0  0  0  0  0  0  0  0  0  0  0  0
    2.0102  -53.2627   20.3957 C   0  0  0  0  0  0  0  0  0  0  0  0
    1.7929  -52.4762   19.1370 C   0  0  0  0  0  0  0  0  0  0  0  0
    0.6816  -51.4715   19.0629 C   0  0  0  0  0  0  0  0  0  0  0  0
   -0.2124  -51.2533   20.2474 C   0  0  0  0  0  0  0  0  0  0  0  0
    0.4643  -50.6851   17.8042 N   0  0  0  0  0  0  0  0  0  0  0  0
    1.3582  -50.9033   16.6197 C   0  0  0  0  0  0  0  0  0  0  0  0
    2.4696  -51.9080   16.6938 C   0  0  2  0  0  0  0  0  0  0  0  0
    3.3636  -52.1262   15.5093 C   0  0  0  0  0  0  0  0  0  0  0  0
    2.6869  -52.6945   17.9525 O   0  0  0  0  0  0  0  0  0  0  0  0
   -0.8891  -51.8215   22.6906 N   0  0  0  0  0  0  0  0  0  0  0  0
   -0.1853  -52.9578   26.4274 C   0  0  0  0  0  0  0  0  0  0  0  0
   -0.7557  -52.9216   25.0405 C   0  0  0  0  0  0  0  0  0  0  0  0
   -0.3188  -51.8578   24.0775 C   0  0  0  0  0  0  0  0  0  0  0  0
    0.6884  -50.8301   24.5013 C   0  0  0  0  0  0  0  0  0  0  0  0
    1.2587  -50.8664   25.8882 C   0  0  0  0  0  0  0  0  0  0  0  0
    0.8218  -51.9302   26.8512 C   0  0  0  0  0  0  0  0  0  0  0  0
    1.3921  -51.9664   28.2381 Cl  0  0  0  0  0  0  0  0  0  0  0  0
    0.0686  -55.3531   27.4012 C   0  0  0  0  0  0  0  0  0  0  0  0
   -0.6222  -54.0216   27.3905 O   0  0  0  0  0  0  0  0  0  0  0  0
    1.2657  -53.5856   22.4461 H   0  0  0  0  0  0  0  0  0  0  0  0
    2.7748  -53.9539   20.4467 H   0  0  0  0  0  0  0  0  0  0  0  0
   -0.9770  -50.5621   20.1964 H   0  0  0  0  0  0  0  0  0  0  0  0
   -0.2651  -50.0257   17.7555 H   0  0  0  0  0  0  0  0  0  0  0  0
    1.8095  -49.9594   16.3953 H   0  0  0  0  0  0  0  0  0  0  0  0
    0.6987  -51.3197   15.8872 H   0  0  0  0  0  0  0  0  0  0  0  0
    3.3391  -51.7348   16.0948 H   0  0  0  0  0  0  0  0  0  0  0  0
    2.9320  -52.8662   14.8682 H   0  0  0  0  0  0  0  0  0  0  0  0
    4.3236  -52.4601   15.8437 H   0  0  0  0  0  0  0  0  0  0  0  0
    3.4729  -51.2080   14.9710 H   0  0  0  0  0  0  0  0  0  0  0  0
   -1.8502  -51.6544   22.5578 H   0  0  0  0  0  0  0  0  0  0  0  0
   -1.4487  -53.6286   24.7489 H   0  0  0  0  0  0  0  0  0  0  0  0
    0.9889  -50.0982   23.8387 H   0  0  0  0  0  0  0  0  0  0  0  0
    1.9517  -50.1595   26.1798 H   0  0  0  0  0  0  0  0  0  0  0  0
   -0.3746  -55.9789   28.1475 H   0  0  0  0  0  0  0  0  0  0  0  0
    1.1064  -55.2147   27.6221 H   0  0  0  0  0  0  0  0  0  0  0  0
   -0.0332  -55.8155   26.4416 H   0  0  0  0  0  0  0  0  0  0  0  0
  1  2  2  0  0  0  0
  2  3  1  0  0  0  0
  2 22  1  0  0  0  0
  3  4  2  0  0  0  0
  3 23  1  0  0  0  0
  4  5  1  0  0  0  0
  5  6  2  0  0  0  0
  5  7  1  0  0  0  0
  6  1  1  0  0  0  0
  6 24  1  0  0  0  0
  7  8  1  0  0  0  0
  7 25  1  0  0  0  0
  8  9  1  0  0  0  0
  8 26  1  0  0  0  0
  8 27  1  0  0  0  0
  9 10  1  0  0  0  0
  9 11  1  0  0  0  0
  9 28  1  1  0  0  0
 10 29  1  0  0  0  0
 10 30  1  0  0  0  0
 10 31  1  0  0  0  0
 11  4  1  0  0  0  0
 12  1  1  0  0  0  0
 12 32  1  0  0  0  0
 13 14  2  0  0  0  0
 14 15  1  0  0  0  0
 14 33  1  0  0  0  0
 15 12  1  0  0  0  0
 15 16  2  0  0  0  0
 16 17  1  0  0  0  0
 16 34  1  0  0  0  0
 17 18  2  0  0  0  0
 17 35  1  0  0  0  0
 18 19  1  0  0  0  0
 18 13  1  0  0  0  0
 20 21  1  0  0  0  0
 20 36  1  0  0  0  0
 20 37  1  0  0  0  0
 20 38  1  0  0  0  0
 21 13  1  0  0  0  0
M  END
>  <minimizedAffinity>
-7.31993

$$$$

 OpenBabel09092411003D

 40 42  0  0  0  0  0  0  0  0999 V2000
    0.0148  -51.2576   25.3504 C   0  0  0  0  0  0  0  0  0  0  0  0
    1.1895  -50.7982   26.1622 C   0  0  0  0  0  0  0  0  0  0  0  0
    1.5863  -51.5489   27.3987 C   0  0  0  0  0  0  0  0  0  0  0  0
    0.8083  -52.7590   27.8235 C   0  0  0  0  0  0  0  0  0  0  0  0
   -0.3664  -53.2184   27.0118 C   0  0  0  0  0  0  0  0  0  0  0  0
   -0.7632  -52.4677   25.7752 C   0  0  0  0  0  0  0  0  0  0  0  0
   -0.3820  -50.5069   24.1139 N   0  0  0  0  0  0  0  0  0  0  0  0
    1.0317  -51.9104   20.0788 C   0  0  0  0  0  0  0  0  0  0  0  0
    0.3262  -50.5932   20.2099 C   0  0  0  0  0  0  0  0  0  0  0  0
   -0.1450  -50.1254   21.5549 C   0  0  0  0  0  0  0  0  0  0  0  0
    0.0892  -50.9747   22.7689 C   0  0  0  0  0  0  0  0  0  0  0  0
    0.7948  -52.2919   22.6378 C   0  0  0  0  0  0  0  0  0  0  0  0
    1.2660  -52.7598   21.2927 C   0  0  0  0  0  0  0  0  0  0  0  0
    1.9715  -54.0770   21.1617 Cl  0  0  0  0  0  0  0  0  0  0  0  0
    1.3357  -51.4963   17.5321 C   0  0  0  0  0  0  0  0  0  0  0  0
    1.5029  -52.3782   18.7338 O   0  0  0  0  0  0  0  0  0  0  0  0
   -1.9380  -52.9271   24.9635 O   0  0  0  0  0  0  0  0  0  0  0  0
   -3.1126  -52.0162   24.7620 C   0  0  1  0  0  0  0  0  0  0  0  0
   -3.7728  -51.7056   23.4514 C   0  0  0  0  0  0  0  0  0  0  0  0
   -4.9015  -50.7534   23.7151 C   0  0  0  0  0  0  0  0  0  0  0  0
   -4.9389  -50.4756   25.1886 N   0  0  0  0  0  0  0  0  0  0  0  0
   -3.8333  -51.2561   25.8356 C   0  0  0  0  0  0  0  0  0  0  0  0
   -3.5058  -51.2733   27.2994 O   0  0  0  0  0  0  0  0  0  0  0  0
    1.7247  -49.9656   25.8700 H   0  0  0  0  0  0  0  0  0  0  0  0
    2.3945  -51.2329   27.9572 H   0  0  0  0  0  0  0  0  0  0  0  0
    1.0813  -53.2755   28.6742 H   0  0  0  0  0  0  0  0  0  0  0  0
   -0.9016  -54.0509   27.3041 H   0  0  0  0  0  0  0  0  0  0  0  0
   -0.9517  -49.7071   24.1851 H   0  0  0  0  0  0  0  0  0  0  0  0
    0.1650  -50.0088   19.3747 H   0  0  0  0  0  0  0  0  0  0  0  0
   -0.6304  -49.2191   21.6451 H   0  0  0  0  0  0  0  0  0  0  0  0
    0.9561  -52.8762   23.4730 H   0  0  0  0  0  0  0  0  0  0  0  0
    1.7268  -51.9924   16.6685 H   0  0  0  0  0  0  0  0  0  0  0  0
    1.8644  -50.5790   17.6866 H   0  0  0  0  0  0  0  0  0  0  0  0
    0.2966  -51.2884   17.3840 H   0  0  0  0  0  0  0  0  0  0  0  0
   -2.2744  -52.6655   24.9060 H   0  0  0  0  0  0  0  0  0  0  0  0
   -4.1516  -52.6054   23.0134 H   0  0  0  0  0  0  0  0  0  0  0  0
   -3.0684  -51.2688   22.7747 H   0  0  0  0  0  0  0  0  0  0  0  0
   -5.8267  -51.1921   23.4047 H   0  0  0  0  0  0  0  0  0  0  0  0
   -4.7565  -49.8447   23.1691 H   0  0  0  0  0  0  0  0  0  0  0  0
   -5.5770  -49.8848   25.6501 H   0  0  0  0  0  0  0  0  0  0  0  0
  1  2  2  0  0  0  0
  2  3  1  0  0  0  0
  2 24  1  0  0  0  0
  3  4  2  0  0  0  0
  3 25  1  0  0  0  0
  4  5  1  0  0  0  0
  4 26  1  0  0  0  0
  5  6  2  0  0  0  0
  5 27  1  0  0  0  0
  6 17  1  0  0  0  0
  6  1  1  0  0  0  0
  7  1  1  0  0  0  0
  7 28  1  0  0  0  0
  8  9  2  0  0  0  0
  9 10  1  0  0  0  0
  9 29  1  0  0  0  0
 10 11  2  0  0  0  0
 10 30  1  0  0  0  0
 11  7  1  0  0  0  0
 11 12  1  0  0  0  0
 12 13  2  0  0  0  0
 12 31  1  0  0  0  0
 13 14  1  0  0  0  0
 13  8  1  0  0  0  0
 15 16  1  0  0  0  0
 15 32  1  0  0  0  0
 15 33  1  0  0  0  0
 15 34  1  0  0  0  0
 16  8  1  0  0  0  0
 18 17  1  0  0  0  0
 18 19  1  0  0  0  0
 18 35  1  6  0  0  0
 19 20  1  0  0  0  0
 19 36  1  0  0  0  0
 19 37  1  0  0  0  0
 20 21  1  0  0  0  0
 20 38  1  0  0  0  0
 20 39  1  0  0  0  0
 21 22  1  0  0  0  0
 21 40  1  0  0  0  0
 22 23  2  0  0  0  0
 22 18  1  0  0  0  0
M  END
>  <minimizedAffinity>
-7.31854

$$$$

 OpenBabel09092411003D

 43 45  0  0  0  0  0  0  0  0999 V2000
    0.2287  -51.1733   22.5805 C   0  0  0  0  0  0  0  0  0  0  0  0
    0.9366  -52.3793   22.0381 C   0  0  0  0  0  0  0  0  0  0  0  0
    1.1342  -53.5865   22.9062 C   0  0  0  0  0  0  0  0  0  0  0  0
    0.6240  -53.5876   24.3167 C   0  0  0  0  0  0  0  0  0  0  0  0
   -0.0839  -52.3815   24.8592 C   0  0  0  0  0  0  0  0  0  0  0  0
   -0.2815  -51.1744   23.9910 C   0  0  0  0  0  0  0  0  0  0  0  0
   -0.5942  -52.3826   26.2697 C   0  0  2  0  0  0  0  0  0  0  0  0
   -0.3966  -53.5898   27.1378 C   0  0  0  0  0  0  0  0  0  0  0  0
    0.3114  -54.7959   26.5954 C   0  0  0  0  0  0  0  0  0  0  0  0
    0.8216  -54.7948   25.1849 O   0  0  0  0  0  0  0  0  0  0  0  0
   -1.3021  -51.1766   26.8121 N   0  0  0  0  0  0  0  0  0  0  0  0
   -2.8012  -51.1388   26.8458 C   0  0  0  0  0  0  0  0  0  0  0  0
   -3.5091  -49.9327   27.3883 C   0  0  0  0  0  0  0  0  0  0  0  0
   -3.5925  -52.3072   26.3371 O   0  0  0  0  0  0  0  0  0  0  0  0
    0.0311  -49.9660   21.7124 N   0  0  0  0  0  0  0  0  0  0  0  0
   -2.0857  -50.3585   17.7608 C   0  0  0  0  0  0  0  0  0  0  0  0
   -2.8055  -50.6928   19.0336 C   0  0  0  0  0  0  0  0  0  0  0  0
   -2.0999  -50.5620   20.3508 C   0  0  0  0  0  0  0  0  0  0  0  0
   -0.6745  -50.0969   20.3952 C   0  0  0  0  0  0  0  0  0  0  0  0
    0.0452  -49.7625   19.1223 C   0  0  0  0  0  0  0  0  0  0  0  0
   -0.6604  -49.8933   17.8051 C   0  0  0  0  0  0  0  0  0  0  0  0
    0.0594  -49.5590   16.5323 Cl  0  0  0  0  0  0  0  0  0  0  0  0
   -3.8881  -49.5320   16.0820 C   0  0  0  0  0  0  0  0  0  0  0  0
   -2.7913  -50.4893   16.4436 O   0  0  0  0  0  0  0  0  0  0  0  0
    1.2877  -52.3785   21.0677 H   0  0  0  0  0  0  0  0  0  0  0  0
    1.6212  -54.4163   22.5330 H   0  0  0  0  0  0  0  0  0  0  0  0
   -0.7685  -50.3446   24.3642 H   0  0  0  0  0  0  0  0  0  0  0  0
   -0.0029  -51.5084   26.0933 H   0  0  0  0  0  0  0  0  0  0  0  0
   -1.3698  -53.9139   27.4424 H   0  0  0  0  0  0  0  0  0  0  0  0
    0.2659  -53.2382   27.9009 H   0  0  0  0  0  0  0  0  0  0  0  0
   -0.3702  -55.6167   26.6767 H   0  0  0  0  0  0  0  0  0  0  0  0
    1.2061  -54.8397   27.1806 H   0  0  0  0  0  0  0  0  0  0  0  0
   -0.7828  -50.4098   27.1460 H   0  0  0  0  0  0  0  0  0  0  0  0
   -2.7881  -49.2069   27.7017 H   0  0  0  0  0  0  0  0  0  0  0  0
   -4.1130  -50.2194   28.2238 H   0  0  0  0  0  0  0  0  0  0  0  0
   -4.1312  -49.5115   26.6264 H   0  0  0  0  0  0  0  0  0  0  0  0
    0.3645  -49.0878   22.0072 H   0  0  0  0  0  0  0  0  0  0  0  0
   -3.7862  -51.0128   19.0031 H   0  0  0  0  0  0  0  0  0  0  0  0
   -2.5951  -50.7920   21.2265 H   0  0  0  0  0  0  0  0  0  0  0  0
    1.0258  -49.4424   19.1528 H   0  0  0  0  0  0  0  0  0  0  0  0
   -4.2710  -49.7776   15.1135 H   0  0  0  0  0  0  0  0  0  0  0  0
   -3.5013  -48.5344   16.0701 H   0  0  0  0  0  0  0  0  0  0  0  0
   -4.6744  -49.6011   16.8044 H   0  0  0  0  0  0  0  0  0  0  0  0
  1  2  2  0  0  0  0
  2  3  1  0  0  0  0
  2 25  1  0  0  0  0
  3  4  2  0  0  0  0
  3 26  1  0  0  0  0
  4  5  1  0  0  0  0
  5  6  2  0  0  0  0
  5  7  1  0  0  0  0
  6  1  1  0  0  0  0
  6 27  1  0  0  0  0
  7 11  1  0  0  0  0
  7  8  1  0  0  0  0
  7 28  1  1  0  0  0
  8  9  1  0  0  0  0
  8 29  1  0  0  0  0
  8 30  1  0  0  0  0
  9 10  1  0  0  0  0
  9 31  1  0  0  0  0
  9 32  1  0  0  0  0
 10  4  1  0  0  0  0
 11 12  1  0  0  0  0
 11 33  1  0  0  0  0
 12 13  1  0  0  0  0
 12 14  2  0  0  0  0
 13 34  1  0  0  0  0
 13 35  1  0  0  0  0
 13 36  1  0  0  0  0
 15  1  1  0  0  0  0
 15 37  1  0  0  0  0
 16 17  2  0  0  0  0
 17 18  1  0  0  0  0
 17 38  1  0  0  0  0
 18 19  2  0  0  0  0
 18 39  1  0  0  0  0
 19 15  1  0  0  0  0
 19 20  1  0  0  0  0
 20 21  2  0  0  0  0
 20 40  1  0  0  0  0
 21 22  1  0  0  0  0
 21 16  1  0  0  0  0
 23 24  1  0  0  0  0
 23 41  1  0  0  0  0
 23 42  1  0  0  0  0
 23 43  1  0  0  0  0
 24 16  1  0  0  0  0
M  END
>  <minimizedAffinity>
-7.30055

$$$$

 OpenBabel09092411003D

 39 41  0  0  0  0  0  0  0  0999 V2000
   -0.5050  -50.4828   22.1929 C   0  0  0  0  0  0  0  0  0  0  0  0
   -1.8802  -51.0808   22.2278 C   0  0  0  0  0  0  0  0  0  0  0  0
   -2.3274  -51.8637   23.4265 C   0  0  0  0  0  0  0  0  0  0  0  0
   -1.3993  -52.0488   24.5904 C   0  0  0  0  0  0  0  0  0  0  0  0
   -0.0241  -51.4508   24.5555 C   0  0  0  0  0  0  0  0  0  0  0  0
    0.4230  -50.6679   23.3568 C   0  0  0  0  0  0  0  0  0  0  0  0
    0.9039  -51.6359   25.7193 C   0  0  1  0  0  0  0  0  0  0  0  0
    2.2791  -51.0379   25.6844 C   0  0  0  0  0  0  0  0  0  0  0  0
    0.4568  -52.4189   26.9180 C   0  0  0  0  0  0  0  0  0  0  0  0
   -0.9185  -53.0169   26.9529 C   0  0  0  0  0  0  0  0  0  0  0  0
   -1.3656  -53.7998   28.1516 O   0  0  0  0  0  0  0  0  0  0  0  0
   -1.8465  -52.8318   25.7891 N   0  0  0  0  0  0  0  0  0  0  0  0
   -0.0578  -49.6998   20.9942 N   0  0  0  0  0  0  0  0  0  0  0  0
    1.6917  -51.8320   17.4385 C   0  0  0  0  0  0  0  0  0  0  0  0
    1.8406  -52.4169   18.8117 C   0  0  0  0  0  0  0  0  0  0  0  0
    1.2574  -51.7062   19.9970 C   0  0  0  0  0  0  0  0  0  0  0  0
    0.5253  -50.4105   19.8090 C   0  0  0  0  0  0  0  0  0  0  0  0
    0.3764  -49.8256   18.4357 C   0  0  0  0  0  0  0  0  0  0  0  0
    0.9596  -50.5363   17.2505 C   0  0  0  0  0  0  0  0  0  0  0  0
    0.8106  -49.9514   15.8773 Cl  0  0  0  0  0  0  0  0  0  0  0  0
    3.7049  -52.3073   15.8666 C   0  0  0  0  0  0  0  0  0  0  0  0
    2.2748  -52.5427   16.2533 O   0  0  0  0  0  0  0  0  0  0  0  0
   -2.5187  -50.9536   21.4271 H   0  0  0  0  0  0  0  0  0  0  0  0
   -3.2736  -52.2750   23.4505 H   0  0  0  0  0  0  0  0  0  0  0  0
    1.3692  -50.2565   23.3328 H   0  0  0  0  0  0  0  0  0  0  0  0
    0.2596  -52.4896   25.6894 H   0  0  0  0  0  0  0  0  0  0  0  0
    2.2078  -49.9741   25.7744 H   0  0  0  0  0  0  0  0  0  0  0  0
    2.7527  -51.2865   24.7577 H   0  0  0  0  0  0  0  0  0  0  0  0
    2.8578  -51.4266   26.4962 H   0  0  0  0  0  0  0  0  0  0  0  0
    0.5299  -51.7630   27.7602 H   0  0  0  0  0  0  0  0  0  0  0  0
    1.0974  -53.2759   26.9049 H   0  0  0  0  0  0  0  0  0  0  0  0
   -2.7491  -53.2242   25.8120 H   0  0  0  0  0  0  0  0  0  0  0  0
   -0.1470  -48.7194   20.9854 H   0  0  0  0  0  0  0  0  0  0  0  0
    2.3443  -53.3083   18.9410 H   0  0  0  0  0  0  0  0  0  0  0  0
    1.3598  -52.1086   20.9418 H   0  0  0  0  0  0  0  0  0  0  0  0
   -0.1273  -48.9342   18.3063 H   0  0  0  0  0  0  0  0  0  0  0  0
    3.9425  -52.8946   15.0044 H   0  0  0  0  0  0  0  0  0  0  0  0
    4.3444  -52.5885   16.6770 H   0  0  0  0  0  0  0  0  0  0  0  0
    3.8478  -51.2708   15.6426 H   0  0  0  0  0  0  0  0  0  0  0  0
  1  2  2  0  0  0  0
  2  3  1  0  0  0  0
  2 23  1  0  0  0  0
  3  4  2  0  0  0  0
  3 24  1  0  0  0  0
  4  5  1  0  0  0  0
  5  6  2  0  0  0  0
  5  7  1  0  0  0  0
  6  1  1  0  0  0  0
  6 25  1  0  0  0  0
  7  8  1  0  0  0  0
  7  9  1  0  0  0  0
  7 26  1  6  0  0  0
  8 27  1  0  0  0  0
  8 28  1  0  0  0  0
  8 29  1  0  0  0  0
  9 10  1  0  0  0  0
  9 30  1  0  0  0  0
  9 31  1  0  0  0  0
 10 11  2  0  0  0  0
 10 12  1  0  0  0  0
 12  4  1  0  0  0  0
 12 32  1  0  0  0  0
 13  1  1  0  0  0  0
 13 33  1  0  0  0  0
 14 15  2  0  0  0  0
 15 16  1  0  0  0  0
 15 34  1  0  0  0  0
 16 17  2  0  0  0  0
 16 35  1  0  0  0  0
 17 13  1  0  0  0  0
 17 18  1  0  0  0  0
 18 19  2  0  0  0  0
 18 36  1  0  0  0  0
 19 20  1  0  0  0  0
 19 14  1  0  0  0  0
 21 22  1  0  0  0  0
 21 37  1  0  0  0  0
 21 38  1  0  0  0  0
 21 39  1  0  0  0  0
 22 14  1  0  0  0  0
M  END
>  <minimizedAffinity>
-7.66455

$$$$

 OpenBabel09092411003D

 40 42  0  0  0  0  0  0  0  0999 V2000
    0.6569  -50.0239   17.8334 N   0  0  0  0  0  0  0  0  0  0  0  0
    0.6076  -51.0317   18.9434 C   0  0  0  0  0  0  0  0  0  0  0  0
    0.0295  -52.3933   18.6950 O   0  0  0  0  0  0  0  0  0  0  0  0
    1.1364  -50.6778   20.3018 N   0  0  0  0  0  0  0  0  0  0  0  0
    1.0871  -51.6856   21.4118 C   0  0  0  0  0  0  0  0  0  0  0  0
    1.5052  -53.1033   21.1567 C   0  0  0  0  0  0  0  0  0  0  0  0
    1.4559  -54.1110   22.2666 C   0  0  0  0  0  0  0  0  0  0  0  0
    0.9885  -53.7010   23.6317 C   0  0  0  0  0  0  0  0  0  0  0  0
    0.5704  -52.2832   23.8868 C   0  0  0  0  0  0  0  0  0  0  0  0
    0.6197  -51.2755   22.7768 C   0  0  0  0  0  0  0  0  0  0  0  0
    0.1574  -52.1733   25.3246 C   0  0  2  0  0  0  0  0  0  0  0  0
   -0.3324  -50.9316   26.0088 C   0  0  0  0  0  0  0  0  0  0  0  0
    0.3204  -53.5232   25.9582 C   0  0  0  0  0  0  0  0  0  0  0  0
    0.8340  -54.4673   24.9119 O   0  0  0  0  0  0  0  0  0  0  0  0
   -0.9295  -51.0856   13.7584 C   0  0  0  0  0  0  0  0  0  0  0  0
    0.4744  -51.4548   14.1363 C   0  0  0  0  0  0  0  0  0  0  0  0
    1.0032  -51.1009   15.4946 C   0  0  0  0  0  0  0  0  0  0  0  0
    0.1281  -50.3778   16.4751 C   0  0  0  0  0  0  0  0  0  0  0  0
   -1.2758  -50.0085   16.0972 C   0  0  0  0  0  0  0  0  0  0  0  0
   -1.8046  -50.3624   14.7388 C   0  0  0  0  0  0  0  0  0  0  0  0
   -3.2084  -49.9932   14.3610 Cl  0  0  0  0  0  0  0  0  0  0  0  0
   -0.6005  -52.2063   11.4377 C   0  0  0  0  0  0  0  0  0  0  0  0
   -1.4583  -51.4394   12.4000 O   0  0  0  0  0  0  0  0  0  0  0  0
    1.0363  -49.1302   17.9964 H   0  0  0  0  0  0  0  0  0  0  0  0
    1.5158  -49.7841   20.4648 H   0  0  0  0  0  0  0  0  0  0  0  0
    1.8268  -53.3854   20.2175 H   0  0  0  0  0  0  0  0  0  0  0  0
    1.7436  -55.0864   22.0911 H   0  0  0  0  0  0  0  0  0  0  0  0
    0.3320  -50.3001   22.9523 H   0  0  0  0  0  0  0  0  0  0  0  0
   -0.1928  -51.2876   25.8123 H   0  0  0  0  0  0  0  0  0  0  0  0
    0.4550  -50.5179   26.6036 H   0  0  0  0  0  0  0  0  0  0  0  0
   -1.1638  -51.1748   26.6369 H   0  0  0  0  0  0  0  0  0  0  0  0
   -0.6378  -50.2163   25.2740 H   0  0  0  0  0  0  0  0  0  0  0  0
   -0.6233  -53.8678   26.3265 H   0  0  0  0  0  0  0  0  0  0  0  0
    1.0056  -53.4687   26.7782 H   0  0  0  0  0  0  0  0  0  0  0  0
    1.0765  -51.9523   13.4617 H   0  0  0  0  0  0  0  0  0  0  0  0
    1.9691  -51.3549   15.7546 H   0  0  0  0  0  0  0  0  0  0  0  0
   -1.8778  -49.5110   16.7718 H   0  0  0  0  0  0  0  0  0  0  0  0
   -1.1402  -52.3656   10.5276 H   0  0  0  0  0  0  0  0  0  0  0  0
   -0.3391  -53.1507   11.8674 H   0  0  0  0  0  0  0  0  0  0  0  0
    0.2897  -51.6496   11.2316 H   0  0  0  0  0  0  0  0  0  0  0  0
  1  2  1  0  0  0  0
  1 24  1  0  0  0  0
  2  3  2  0  0  0  0
  2  4  1  0  0  0  0
  4  5  1  0  0  0  0
  4 25  1  0  0  0  0
  5  6  2  0  0  0  0
  6  7  1  0  0  0  0
  6 26  1  0  0  0  0
  7  8  2  0  0  0  0
  7 27  1  0  0  0  0
  8  9  1  0  0  0  0
  9 10  2  0  0  0  0
  9 11  1  0  0  0  0
 10  5  1  0  0  0  0
 10 28  1  0  0  0  0
 11 12  1  0  0  0  0
 11 13  1  0  0  0  0
 11 29  1  6  0  0  0
 12 30  1  0  0  0  0
 12 31  1  0  0  0  0
 12 32  1  0  0  0  0
 13 14  1  0  0  0  0
 13 33  1  0  0  0  0
 13 34  1  0  0  0  0
 14  8  1  0  0  0  0
 15 16  2  0  0  0  0
 16 17  1  0  0  0  0
 16 35  1  0  0  0  0
 17 18  2  0  0  0  0
 17 36  1  0  0  0  0
 18  1  1  0  0  0  0
 18 19  1  0  0  0  0
 19 20  2  0  0  0  0
 19 37  1  0  0  0  0
 20 21  1  0  0  0  0
 20 15  1  0  0  0  0
 22 23  1  0  0  0  0
 22 38  1  0  0  0  0
 22 39  1  0  0  0  0
 22 40  1  0  0  0  0
 23 15  1  0  0  0  0
M  END
>  <minimizedAffinity>
-7.18386

$$$$

 OpenBabel09092411003D

 34 35  0  0  0  0  0  0  0  0999 V2000
    4.2784  -51.3669   14.2891 C   0  0  0  0  0  0  0  0  0  0  0  0
    4.6054  -52.1002   15.5561 C   0  0  0  0  0  0  0  0  0  0  0  0
    3.5074  -52.4966   16.4981 C   0  0  0  0  0  0  0  0  0  0  0  0
    2.0824  -52.1597   16.1730 C   0  0  0  0  0  0  0  0  0  0  0  0
    1.7553  -51.4264   14.9060 C   0  0  0  0  0  0  0  0  0  0  0  0
    2.8534  -51.0300   13.9641 C   0  0  0  0  0  0  0  0  0  0  0  0
    7.0360  -51.5784   11.4430 C   0  0  0  0  0  0  0  0  0  0  0  0
    5.9380  -51.9748   12.3849 N   0  0  0  0  0  0  0  0  0  0  0  0
    5.4016  -53.3755   12.3645 C   0  0  0  0  0  0  0  0  0  0  0  0
    5.3764  -50.9705   13.3472 C   0  0  0  0  0  0  0  0  0  0  0  0
    5.9128  -49.5699   13.3675 O   0  0  0  0  0  0  0  0  0  0  0  0
    0.9844  -52.5561   17.1150 N   0  0  0  0  0  0  0  0  0  0  0  0
    1.0942  -52.2293   18.5748 C   0  0  0  0  0  0  0  0  0  0  0  0
    1.5542  -53.2765   19.5452 N   0  0  0  0  0  0  0  0  0  0  0  0
    1.6640  -52.9497   21.0051 C   0  0  0  0  0  0  0  0  0  0  0  0
    1.3137  -51.5757   21.4945 C   0  0  0  0  0  0  0  0  0  0  0  0
    1.4235  -51.2489   22.9544 F   0  0  0  0  0  0  0  0  0  0  0  0
    0.8537  -50.5286   20.5241 C   0  0  0  0  0  0  0  0  0  0  0  0
    0.7439  -50.8553   19.0642 C   0  0  0  0  0  0  0  0  0  0  0  0
    0.2838  -49.8081   18.0938 Cl  0  0  0  0  0  0  0  0  0  0  0  0
    0.3302  -51.0895   14.5809 C   0  0  0  0  0  0  0  0  0  0  0  0
   -1.0948  -50.7526   14.2559 N   0  0  0  0  0  0  0  0  0  0  0  0
    5.5858  -52.3320   15.7797 H   0  0  0  0  0  0  0  0  0  0  0  0
    3.7324  -53.0011   17.3698 H   0  0  0  0  0  0  0  0  0  0  0  0
    2.6284  -50.5254   13.0924 H   0  0  0  0  0  0  0  0  0  0  0  0
    7.3069  -52.4180   10.8375 H   0  0  0  0  0  0  0  0  0  0  0  0
    7.8873  -51.2538   12.0040 H   0  0  0  0  0  0  0  0  0  0  0  0
    6.6970  -50.7807   10.8156 H   0  0  0  0  0  0  0  0  0  0  0  0
    5.9185  -53.9446   11.6203 H   0  0  0  0  0  0  0  0  0  0  0  0
    4.3567  -53.3540   12.1351 H   0  0  0  0  0  0  0  0  0  0  0  0
    5.5470  -53.8271   13.3236 H   0  0  0  0  0  0  0  0  0  0  0  0
    0.1917  -53.0308   16.7751 H   0  0  0  0  0  0  0  0  0  0  0  0
    1.9805  -53.6702   21.6728 H   0  0  0  0  0  0  0  0  0  0  0  0
    0.6127  -49.5833   20.8608 H   0  0  0  0  0  0  0  0  0  0  0  0
  1  2  2  0  0  0  0
  2  3  1  0  0  0  0
  2 23  1  0  0  0  0
  3  4  2  0  0  0  0
  3 24  1  0  0  0  0
  4 12  1  0  0  0  0
  4  5  1  0  0  0  0
  5 21  1  0  0  0  0
  5  6  2  0  0  0  0
  6  1  1  0  0  0  0
  6 25  1  0  0  0  0
  7  8  1  0  0  0  0
  7 26  1  0  0  0  0
  7 27  1  0  0  0  0
  7 28  1  0  0  0  0
  8  9  1  0  0  0  0
  8 10  1  0  0  0  0
  9 29  1  0  0  0  0
  9 30  1  0  0  0  0
  9 31  1  0  0  0  0
 10 11  2  0  0  0  0
 10  1  1  0  0  0  0
 12 13  1  0  0  0  0
 12 32  1  0  0  0  0
 13 14  2  0  0  0  0
 14 15  1  0  0  0  0
 15 16  2  0  0  0  0
 15 33  1  0  0  0  0
 16 17  1  0  0  0  0
 16 18  1  0  0  0  0
 18 19  2  0  0  0  0
 18 34  1  0  0  0  0
 19 20  1  0  0  0  0
 19 13  1  0  0  0  0
 21 22  3  0  0  0  0
M  END
>  <minimizedAffinity>
-6.30698

$$$$

 OpenBabel09092411003D

 36 37  0  0  0  0  0  0  0  0999 V2000
   -0.2882  -51.0166   20.2375 C   0  0  0  0  0  0  0  0  0  0  0  0
    0.5642  -51.1314   19.0086 C   0  0  0  0  0  0  0  0  0  0  0  0
    1.5830  -52.2272   18.9022 C   0  0  0  0  0  0  0  0  0  0  0  0
    1.7493  -53.2082   20.0246 C   0  0  0  0  0  0  0  0  0  0  0  0
    0.8969  -53.0934   21.2534 C   0  0  0  0  0  0  0  0  0  0  0  0
   -0.1219  -51.9976   21.3599 C   0  0  0  0  0  0  0  0  0  0  0  0
    2.4354  -52.3419   17.6732 C   0  0  0  0  0  0  0  0  0  0  0  0
    3.2879  -52.4567   16.4444 N   0  0  0  0  0  0  0  0  0  0  0  0
   -0.9743  -51.8829   22.5888 N   0  0  0  0  0  0  0  0  0  0  0  0
   -0.3330  -51.6919   23.9313 C   0  0  0  0  0  0  0  0  0  0  0  0
    1.1200  -51.3307   24.0238 N   0  0  0  0  0  0  0  0  0  0  0  0
    1.7613  -51.1397   25.3663 C   0  0  0  0  0  0  0  0  0  0  0  0
    0.9497  -51.3099   26.6162 C   0  0  0  0  0  0  0  0  0  0  0  0
    1.5910  -51.1189   27.9587 F   0  0  0  0  0  0  0  0  0  0  0  0
   -0.5032  -51.6710   26.5237 C   0  0  0  0  0  0  0  0  0  0  0  0
   -1.1446  -51.8620   25.1812 C   0  0  0  0  0  0  0  0  0  0  0  0
   -2.5975  -52.2232   25.0887 Cl  0  0  0  0  0  0  0  0  0  0  0  0
   -1.3069  -49.9208   20.3439 C   0  0  0  0  0  0  0  0  0  0  0  0
   -1.5060  -48.3880   22.4322 C   0  0  0  0  0  0  0  0  0  0  0  0
   -0.9656  -48.6460   21.0569 N   0  3  0  0  0  0  0  0  0  0  0  0
   -0.0836  -47.6292   20.3947 C   0  0  0  0  0  0  0  0  0  0  0  0
    0.4497  -50.4565   18.2363 H   0  0  0  0  0  0  0  0  0  0  0  0
    2.4502  -53.9621   19.9514 H   0  0  0  0  0  0  0  0  0  0  0  0
    1.0113  -53.7684   22.0256 H   0  0  0  0  0  0  0  0  0  0  0  0
   -1.9547  -51.9330   22.5143 H   0  0  0  0  0  0  0  0  0  0  0  0
    2.7609  -50.8912   25.4300 H   0  0  0  0  0  0  0  0  0  0  0  0
   -1.0616  -51.7880   27.3837 H   0  0  0  0  0  0  0  0  0  0  0  0
   -1.5775  -49.6525   19.3441 H   0  0  0  0  0  0  0  0  0  0  0  0
   -2.0678  -50.3514   20.9608 H   0  0  0  0  0  0  0  0  0  0  0  0
   -1.1596  -47.4368   22.7789 H   0  0  0  0  0  0  0  0  0  0  0  0
   -1.1683  -49.1548   23.0977 H   0  0  0  0  0  0  0  0  0  0  0  0
   -2.5755  -48.3884   22.4010 H   0  0  0  0  0  0  0  0  0  0  0  0
   -1.8292  -48.3513   20.6012 H   0  0  0  0  0  0  0  0  0  0  0  0
    0.9225  -47.7526   20.7374 H   0  0  0  0  0  0  0  0  0  0  0  0
   -0.4261  -46.6458   20.6406 H   0  0  0  0  0  0  0  0  0  0  0  0
   -0.1181  -47.7640   19.3338 H   0  0  0  0  0  0  0  0  0  0  0  0
  1  2  2  0  0  0  0
  2  3  1  0  0  0  0
  2 22  1  0  0  0  0
  3  7  1  0  0  0  0
  3  4  2  0  0  0  0
  4  5  1  0  0  0  0
  4 23  1  0  0  0  0
  5  6  2  0  0  0  0
  5 24  1  0  0  0  0
  6  9  1  0  0  0  0
  6  1  1  0  0  0  0
  7  8  3  0  0  0  0
  9 10  1  0  0  0  0
  9 25  1  0  0  0  0
 10 11  2  0  0  0  0
 11 12  1  0  0  0  0
 12 13  2  0  0  0  0
 12 26  1  0  0  0  0
 13 14  1  0  0  0  0
 13 15  1  0  0  0  0
 15 16  2  0  0  0  0
 15 27  1  0  0  0  0
 16 17  1  0  0  0  0
 16 10  1  0  0  0  0
 18  1  1  0  0  0  0
 18 28  1  0  0  0  0
 18 29  1  0  0  0  0
 19 20  1  0  0  0  0
 19 30  1  0  0  0  0
 19 31  1  0  0  0  0
 19 32  1  0  0  0  0
 20 21  1  0  0  0  0
 20 18  1  0  0  0  0
 20 33  1  0  0  0  0
 21 34  1  0  0  0  0
 21 35  1  0  0  0  0
 21 36  1  0  0  0  0
M  CHG  1  20   1
M  END
>  <minimizedAffinity>
-6.66736

$$$$

 OpenBabel09092411003D

 32 33  0  0  0  0  0  0  0  0999 V2000
    1.6502  -52.3289   19.4275 C   0  0  0  0  0  0  0  0  0  0  0  0
    1.3915  -53.4857   20.3467 C   0  0  0  0  0  0  0  0  0  0  0  0
    0.5622  -53.2916   21.5814 C   0  0  0  0  0  0  0  0  0  0  0  0
   -0.0085  -51.9408   21.8969 C   0  0  0  0  0  0  0  0  0  0  0  0
    0.2501  -50.7841   20.9777 C   0  0  0  0  0  0  0  0  0  0  0  0
    1.0795  -50.9781   19.7430 C   0  0  0  0  0  0  0  0  0  0  0  0
    2.8538  -52.1397   15.6506 C   0  0  0  0  0  0  0  0  0  0  0  0
    2.0245  -51.9457   16.8853 C   0  0  0  0  0  0  0  0  0  0  0  0
    0.7400  -51.1743   16.8124 O   0  0  0  0  0  0  0  0  0  0  0  0
    2.4795  -52.5230   18.1928 N   0  0  0  0  0  0  0  0  0  0  0  0
   -0.8379  -51.7468   23.1317 N   0  0  0  0  0  0  0  0  0  0  0  0
   -0.1735  -51.6394   24.4722 C   0  0  0  0  0  0  0  0  0  0  0  0
    1.2920  -51.3320   24.5605 C   0  0  0  0  0  0  0  0  0  0  0  0
    1.9564  -51.2247   25.9011 C   0  0  0  0  0  0  0  0  0  0  0  0
    1.1552  -51.4247   27.1533 C   0  0  0  0  0  0  0  0  0  0  0  0
    1.8196  -51.3174   28.4939 F   0  0  0  0  0  0  0  0  0  0  0  0
   -0.3103  -51.7322   27.0650 C   0  0  0  0  0  0  0  0  0  0  0  0
   -0.9746  -51.8395   25.7245 C   0  0  0  0  0  0  0  0  0  0  0  0
   -2.4401  -52.1469   25.6362 Cl  0  0  0  0  0  0  0  0  0  0  0  0
   -0.3206  -49.4332   21.2932 C   0  0  0  0  0  0  0  0  0  0  0  0
   -0.8912  -48.0824   21.6087 N   0  0  0  0  0  0  0  0  0  0  0  0
    1.7841  -54.4151   20.1296 H   0  0  0  0  0  0  0  0  0  0  0  0
    0.3843  -54.0875   22.2138 H   0  0  0  0  0  0  0  0  0  0  0  0
    1.2575  -50.1822   19.1106 H   0  0  0  0  0  0  0  0  0  0  0  0
    2.3756  -51.6621   14.8211 H   0  0  0  0  0  0  0  0  0  0  0  0
    2.9554  -53.1858   15.4499 H   0  0  0  0  0  0  0  0  0  0  0  0
    3.8221  -51.7096   15.8001 H   0  0  0  0  0  0  0  0  0  0  0  0
    3.3225  -53.0293   18.2406 H   0  0  0  0  0  0  0  0  0  0  0  0
   -1.8183  -51.6900   23.0623 H   0  0  0  0  0  0  0  0  0  0  0  0
    1.8432  -51.1943   23.6989 H   0  0  0  0  0  0  0  0  0  0  0  0
    2.9647  -51.0133   25.9619 H   0  0  0  0  0  0  0  0  0  0  0  0
   -0.8615  -51.8699   27.9265 H   0  0  0  0  0  0  0  0  0  0  0  0
  1  2  2  0  0  0  0
  2  3  1  0  0  0  0
  2 22  1  0  0  0  0
  3  4  2  0  0  0  0
  3 23  1  0  0  0  0
  4 11  1  0  0  0  0
  4  5  1  0  0  0  0
  5 20  1  0  0  0  0
  5  6  2  0  0  0  0
  6  1  1  0  0  0  0
  6 24  1  0  0  0  0
  7  8  1  0  0  0  0
  7 25  1  0  0  0  0
  7 26  1  0  0  0  0
  7 27  1  0  0  0  0
  8  9  2  0  0  0  0
  8 10  1  0  0  0  0
 10  1  1  0  0  0  0
 10 28  1  0  0  0  0
 11 12  1  0  0  0  0
 11 29  1  0  0  0  0
 12 13  2  0  0  0  0
 13 14  1  0  0  0  0
 13 30  1  0  0  0  0
 14 15  2  0  0  0  0
 14 31  1  0  0  0  0
 15 16  1  0  0  0  0
 15 17  1  0  0  0  0
 17 18  2  0  0  0  0
 17 32  1  0  0  0  0
 18 19  1  0  0  0  0
 18 12  1  0  0  0  0
 20 21  3  0  0  0  0
M  END
>  <minimizedAffinity>
-7.07542

$$$$

 OpenBabel09092411003D

 44 45  0  0  0  0  0  0  0  0999 V2000
   -0.2306  -51.3435   26.1437 C   0  0  0  0  0  0  0  0  0  0  0  0
    1.1483  -51.4092   25.5570 C   0  0  0  0  0  0  0  0  0  0  0  0
    1.3542  -51.1488   24.0942 C   0  0  0  0  0  0  0  0  0  0  0  0
    0.1811  -50.8227   23.2181 C   0  0  0  0  0  0  0  0  0  0  0  0
   -1.1978  -50.7570   23.8047 C   0  0  0  0  0  0  0  0  0  0  0  0
   -1.4037  -51.0174   25.2676 C   0  0  0  0  0  0  0  0  0  0  0  0
   -2.3709  -50.4309   22.9286 C   0  0  0  0  0  0  0  0  0  0  0  0
   -3.1770  -51.5358   22.3127 O   0  0  0  0  0  0  0  0  0  0  0  0
   -2.7378  -48.9999   22.6685 N   0  0  0  0  0  0  0  0  0  0  0  0
   -3.9109  -48.6738   21.7923 C   0  0  0  0  0  0  0  0  0  0  0  0
   -1.9317  -47.8950   23.2844 C   0  0  0  0  0  0  0  0  0  0  0  0
    0.3870  -50.5623   21.7553 N   0  0  0  0  0  0  0  0  0  0  0  0
    0.5375  -51.7113   20.8028 C   0  0  0  0  0  0  0  0  0  0  0  0
    0.4820  -53.1207   21.3132 O   0  0  0  0  0  0  0  0  0  0  0  0
    0.7433  -51.4509   19.3400 C   0  0  0  0  0  0  0  0  0  0  0  0
   -0.1330  -50.4673   18.6227 C   0  0  0  0  0  0  0  0  0  0  0  0
    0.0729  -50.2069   17.1599 C   0  0  0  0  0  0  0  0  0  0  0  0
    1.1551  -50.9301   16.4144 C   0  0  0  0  0  0  0  0  0  0  0  0
    2.0315  -51.9137   17.1317 C   0  0  0  0  0  0  0  0  0  0  0  0
    3.1138  -52.6368   16.3863 Cl  0  0  0  0  0  0  0  0  0  0  0  0
    1.8257  -52.1741   18.5945 C   0  0  0  0  0  0  0  0  0  0  0  0
    1.3610  -50.6697   14.9516 C   0  0  0  0  0  0  0  0  0  0  0  0
    1.5669  -50.4093   13.4888 N   0  0  0  0  0  0  0  0  0  0  0  0
   -0.4365  -51.6039   27.6065 O   0  0  0  0  0  0  0  0  0  0  0  0
   -0.1769  -54.1785   27.3750 C   0  0  0  0  0  0  0  0  0  0  0  0
   -0.7547  -52.9897   28.0841 C   0  0  0  0  0  0  0  0  0  0  0  0
    1.9554  -51.6336   26.1598 H   0  0  0  0  0  0  0  0  0  0  0  0
    2.3029  -51.1940   23.6906 H   0  0  0  0  0  0  0  0  0  0  0  0
   -2.3524  -50.9722   25.6713 H   0  0  0  0  0  0  0  0  0  0  0  0
   -4.3604  -49.5809   21.4459 H   0  0  0  0  0  0  0  0  0  0  0  0
   -3.5805  -48.0967   20.9541 H   0  0  0  0  0  0  0  0  0  0  0  0
   -4.6286  -48.1112   22.3520 H   0  0  0  0  0  0  0  0  0  0  0  0
   -1.1421  -48.3145   23.8721 H   0  0  0  0  0  0  0  0  0  0  0  0
   -2.5631  -47.2984   23.9092 H   0  0  0  0  0  0  0  0  0  0  0  0
   -1.5149  -47.2839   22.5113 H   0  0  0  0  0  0  0  0  0  0  0  0
    0.4234  -49.6372   21.4203 H   0  0  0  0  0  0  0  0  0  0  0  0
   -0.8776  -49.9697   19.1356 H   0  0  0  0  0  0  0  0  0  0  0  0
   -0.5300  -49.5302   16.6664 H   0  0  0  0  0  0  0  0  0  0  0  0
    2.4287  -52.8507   19.0880 H   0  0  0  0  0  0  0  0  0  0  0  0
   -0.5110  -55.0758   27.8526 H   0  0  0  0  0  0  0  0  0  0  0  0
    0.8914  -54.1313   27.4119 H   0  0  0  0  0  0  0  0  0  0  0  0
   -0.4990  -54.1764   26.3546 H   0  0  0  0  0  0  0  0  0  0  0  0
   -0.4285  -53.0483   29.1015 H   0  0  0  0  0  0  0  0  0  0  0  0
   -1.8047  -53.0789   27.8983 H   0  0  0  0  0  0  0  0  0  0  0  0
  1  2  2  0  0  0  0
  2  3  1  0  0  0  0
  2 27  1  0  0  0  0
  3  4  2  0  0  0  0
  3 28  1  0  0  0  0
  4 12  1  0  0  0  0
  4  5  1  0  0  0  0
  5  7  1  0  0  0  0
  5  6  2  0  0  0  0
  6  1  1  0  0  0  0
  6 29  1  0  0  0  0
  7  8  2  0  0  0  0
  7  9  1  0  0  0  0
  9 10  1  0  0  0  0
  9 11  1  0  0  0  0
 10 30  1  0  0  0  0
 10 31  1  0  0  0  0
 10 32  1  0  0  0  0
 11 33  1  0  0  0  0
 11 34  1  0  0  0  0
 11 35  1  0  0  0  0
 12 13  1  0  0  0  0
 12 36  1  0  0  0  0
 13 14  2  0  0  0  0
 13 15  1  0  0  0  0
 15 16  2  0  0  0  0
 16 17  1  0  0  0  0
 16 37  1  0  0  0  0
 17 18  2  0  0  0  0
 17 38  1  0  0  0  0
 18 22  1  0  0  0  0
 18 19  1  0  0  0  0
 19 20  1  0  0  0  0
 19 21  2  0  0  0  0
 21 15  1  0  0  0  0
 21 39  1  0  0  0  0
 22 23  3  0  0  0  0
 24  1  1  0  0  0  0
 25 26  1  0  0  0  0
 25 40  1  0  0  0  0
 25 41  1  0  0  0  0
 25 42  1  0  0  0  0
 26 24  1  0  0  0  0
 26 43  1  0  0  0  0
 26 44  1  0  0  0  0
M  END
>  <minimizedAffinity>
-6.71951

$$$$

 OpenBabel09092411003D

 38 39  0  0  0  0  0  0  0  0999 V2000
   -0.4255  -51.2969   23.7759 C   0  0  0  0  0  0  0  0  0  0  0  0
    0.1442  -50.6972   22.5247 C   0  0  0  0  0  0  0  0  0  0  0  0
   -0.7718  -50.1429   21.4741 C   0  0  0  0  0  0  0  0  0  0  0  0
   -2.2576  -50.1885   21.6747 C   0  0  0  0  0  0  0  0  0  0  0  0
   -3.1736  -49.6342   20.6242 Cl  0  0  0  0  0  0  0  0  0  0  0  0
   -2.8273  -50.7883   22.9259 C   0  0  0  0  0  0  0  0  0  0  0  0
   -1.9113  -51.3425   23.9765 C   0  0  0  0  0  0  0  0  0  0  0  0
    0.8464  -51.0218   26.0245 N   0  0  0  0  0  0  0  0  0  0  0  0
    0.4905  -51.8512   24.8264 C   0  0  0  0  0  0  0  0  0  0  0  0
    1.0507  -53.2348   24.6789 O   0  0  0  0  0  0  0  0  0  0  0  0
    1.1927  -52.1730   28.3278 C   0  0  0  0  0  0  0  0  0  0  0  0
    1.7624  -51.5761   27.0751 C   0  0  0  0  0  0  0  0  0  0  0  0
    3.2481  -51.5334   26.8731 C   0  0  0  0  0  0  0  0  0  0  0  0
   -0.2020  -49.5431   20.2228 N   0  0  0  0  0  0  0  0  0  0  0  0
    0.5555  -50.4041   19.2560 C   0  0  0  0  0  0  0  0  0  0  0  0
    1.2570  -51.6382   19.7410 C   0  0  0  0  0  0  0  0  0  0  0  0
    2.0146  -52.4992   18.7741 C   0  0  0  0  0  0  0  0  0  0  0  0
    2.0706  -52.1262   17.3222 C   0  0  0  0  0  0  0  0  0  0  0  0
    2.8281  -52.9872   16.3554 F   0  0  0  0  0  0  0  0  0  0  0  0
    1.3691  -50.8922   16.8373 C   0  0  0  0  0  0  0  0  0  0  0  0
    0.6116  -50.0312   17.8042 C   0  0  0  0  0  0  0  0  0  0  0  0
   -0.0899  -48.7972   17.3192 F   0  0  0  0  0  0  0  0  0  0  0  0
   -2.4812  -51.9423   25.2278 C   0  0  0  0  0  0  0  0  0  0  0  0
   -3.0510  -52.5421   26.4790 N   0  0  0  0  0  0  0  0  0  0  0  0
    1.1664  -50.6659   22.3866 H   0  0  0  0  0  0  0  0  0  0  0  0
   -3.8495  -50.8197   23.0639 H   0  0  0  0  0  0  0  0  0  0  0  0
    0.4788  -50.1136   26.1213 H   0  0  0  0  0  0  0  0  0  0  0  0
    1.9898  -52.5136   28.9551 H   0  0  0  0  0  0  0  0  0  0  0  0
    0.5608  -52.9984   28.0742 H   0  0  0  0  0  0  0  0  0  0  0  0
    0.6211  -51.4328   28.8477 H   0  0  0  0  0  0  0  0  0  0  0  0
    1.3972  -52.3702   26.4578 H   0  0  0  0  0  0  0  0  0  0  0  0
    3.6671  -50.7515   27.4714 H   0  0  0  0  0  0  0  0  0  0  0  0
    3.4626  -51.3471   25.8415 H   0  0  0  0  0  0  0  0  0  0  0  0
    3.6745  -52.4712   27.1623 H   0  0  0  0  0  0  0  0  0  0  0  0
   -0.3252  -48.5843   20.0361 H   0  0  0  0  0  0  0  0  0  0  0  0
    1.2184  -51.8948   20.7398 H   0  0  0  0  0  0  0  0  0  0  0  0
    2.4973  -53.3482   19.1077 H   0  0  0  0  0  0  0  0  0  0  0  0
    1.4076  -50.6356   15.8385 H   0  0  0  0  0  0  0  0  0  0  0  0
  1  2  2  0  0  0  0
  2  3  1  0  0  0  0
  2 25  1  0  0  0  0
  3 14  1  0  0  0  0
  3  4  2  0  0  0  0
  4  5  1  0  0  0  0
  4  6  1  0  0  0  0
  6  7  2  0  0  0  0
  6 26  1  0  0  0  0
  7 23  1  0  0  0  0
  7  1  1  0  0  0  0
  8  9  1  0  0  0  0
  8 27  1  0  0  0  0
  9 10  2  0  0  0  0
  9  1  1  0  0  0  0
 11 12  1  0  0  0  0
 11 28  1  0  0  0  0
 11 29  1  0  0  0  0
 11 30  1  0  0  0  0
 12 13  1  0  0  0  0
 12  8  1  0  0  0  0
 12 31  1  0  0  0  0
 13 32  1  0  0  0  0
 13 33  1  0  0  0  0
 13 34  1  0  0  0  0
 14 15  1  0  0  0  0
 14 35  1  0  0  0  0
 15 16  2  0  0  0  0
 16 17  1  0  0  0  0
 16 36  1  0  0  0  0
 17 18  2  0  0  0  0
 17 37  1  0  0  0  0
 18 19  1  0  0  0  0
 18 20  1  0  0  0  0
 20 21  2  0  0  0  0
 20 38  1  0  0  0  0
 21 22  1  0  0  0  0
 21 15  1  0  0  0  0
 23 24  3  0  0  0  0
M  END
>  <minimizedAffinity>
-7.37076

$$$$

 OpenBabel09092411003D

 43 44  0  0  0  0  0  0  0  0999 V2000
   -0.2127  -50.9921   25.8681 C   0  0  0  0  0  0  0  0  0  0  0  0
   -1.1874  -50.3487   26.8094 N   0  0  0  0  0  0  0  0  0  0  0  0
   -2.6578  -50.6012   26.6545 C   0  0  0  0  0  0  0  0  0  0  0  0
   -3.1536  -51.4971   25.5584 C   0  0  0  0  0  0  0  0  0  0  0  0
   -2.1789  -52.1405   24.6172 C   0  0  0  0  0  0  0  0  0  0  0  0
   -0.7085  -51.8879   24.7720 C   0  0  0  0  0  0  0  0  0  0  0  0
    0.2662  -52.5314   23.8307 N   0  0  0  0  0  0  0  0  0  0  0  0
    0.4493  -51.9795   22.4480 C   0  0  0  0  0  0  0  0  0  0  0  0
    0.1079  -50.5473   22.1607 C   0  0  0  0  0  0  0  0  0  0  0  0
    0.2910  -49.9955   20.7780 C   0  0  0  0  0  0  0  0  0  0  0  0
    0.8155  -50.8757   19.6825 C   0  0  0  0  0  0  0  0  0  0  0  0
    0.9986  -50.3239   18.2998 F   0  0  0  0  0  0  0  0  0  0  0  0
    1.1570  -52.3078   19.9698 C   0  0  0  0  0  0  0  0  0  0  0  0
    0.9739  -52.8597   21.3525 C   0  0  0  0  0  0  0  0  0  0  0  0
    1.3153  -54.2918   21.6397 Cl  0  0  0  0  0  0  0  0  0  0  0  0
   -0.0505  -48.5634   20.4908 C   0  0  0  0  0  0  0  0  0  0  0  0
   -0.3919  -47.1313   20.2035 N   0  0  0  0  0  0  0  0  0  0  0  0
    1.2578  -50.7395   26.0230 O   0  0  0  0  0  0  0  0  0  0  0  0
    1.5726  -51.9801   28.2839 C   0  0  0  0  0  0  0  0  0  0  0  0
    2.0793  -51.6179   26.9193 C   0  0  0  0  0  0  0  0  0  0  0  0
   -3.6325  -49.9578   27.5959 C   0  0  0  0  0  0  0  0  0  0  0  0
   -3.9185  -48.4891   27.4910 N   0  3  0  0  0  0  0  0  0  0  0  0
   -4.8044  -47.9738   26.3958 C   0  0  0  0  0  0  0  0  0  0  0  0
   -3.3184  -47.5356   28.4815 C   0  0  0  0  0  0  0  0  0  0  0  0
   -4.1653  -51.6708   25.4518 H   0  0  0  0  0  0  0  0  0  0  0  0
   -2.5200  -52.7570   23.8631 H   0  0  0  0  0  0  0  0  0  0  0  0
    0.7857  -53.3159   24.1204 H   0  0  0  0  0  0  0  0  0  0  0  0
   -0.2529  -49.9417   22.9144 H   0  0  0  0  0  0  0  0  0  0  0  0
    1.5179  -52.9134   19.2161 H   0  0  0  0  0  0  0  0  0  0  0  0
    2.2869  -52.6078   28.7746 H   0  0  0  0  0  0  0  0  0  0  0  0
    0.6429  -52.5017   28.1923 H   0  0  0  0  0  0  0  0  0  0  0  0
    1.4266  -51.0892   28.8582 H   0  0  0  0  0  0  0  0  0  0  0  0
    2.2344  -52.5368   26.3935 H   0  0  0  0  0  0  0  0  0  0  0  0
    2.9411  -51.0190   27.1279 H   0  0  0  0  0  0  0  0  0  0  0  0
   -3.2660  -50.1312   28.5861 H   0  0  0  0  0  0  0  0  0  0  0  0
   -4.5655  -50.4096   27.3307 H   0  0  0  0  0  0  0  0  0  0  0  0
   -4.7835  -48.5097   26.9508 H   0  0  0  0  0  0  0  0  0  0  0  0
   -4.3169  -47.1643   25.8939 H   0  0  0  0  0  0  0  0  0  0  0  0
   -5.7267  -47.6298   26.8152 H   0  0  0  0  0  0  0  0  0  0  0  0
   -5.0016  -48.7597   25.6970 H   0  0  0  0  0  0  0  0  0  0  0  0
   -2.3724  -47.9119   28.8108 H   0  0  0  0  0  0  0  0  0  0  0  0
   -3.9738  -47.4342   29.3212 H   0  0  0  0  0  0  0  0  0  0  0  0
   -3.1809  -46.5806   28.0190 H   0  0  0  0  0  0  0  0  0  0  0  0
  1  2  2  0  0  0  0
  2  3  1  0  0  0  0
  3 21  1  0  0  0  0
  3  4  2  0  0  0  0
  4  5  1  0  0  0  0
  4 25  1  0  0  0  0
  5  6  2  0  0  0  0
  5 26  1  0  0  0  0
  6  7  1  0  0  0  0
  6  1  1  0  0  0  0
  7  8  1  0  0  0  0
  7 27  1  0  0  0  0
  8  9  2  0  0  0  0
  9 10  1  0  0  0  0
  9 28  1  0  0  0  0
 10 16  1  0  0  0  0
 10 11  2  0  0  0  0
 11 12  1  0  0  0  0
 11 13  1  0  0  0  0
 13 14  2  0  0  0  0
 13 29  1  0  0  0  0
 14 15  1  0  0  0  0
 14  8  1  0  0  0  0
 16 17  3  0  0  0  0
 18  1  1  0  0  0  0
 19 20  1  0  0  0  0
 19 30  1  0  0  0  0
 19 31  1  0  0  0  0
 19 32  1  0  0  0  0
 20 18  1  0  0  0  0
 20 33  1  0  0  0  0
 20 34  1  0  0  0  0
 21 22  1  0  0  0  0
 21 35  1  0  0  0  0
 21 36  1  0  0  0  0
 22 23  1  0  0  0  0
 22 24  1  0  0  0  0
 22 37  1  0  0  0  0
 23 38  1  0  0  0  0
 23 39  1  0  0  0  0
 23 40  1  0  0  0  0
 24 41  1  0  0  0  0
 24 42  1  0  0  0  0
 24 43  1  0  0  0  0
M  CHG  1  22   1
M  END
>  <minimizedAffinity>
-6.87601

$$$$

 OpenBabel09092411003D

 42 43  0  0  0  0  0  0  0  0999 V2000
   -0.3973  -50.7352   25.3232 C   0  0  0  0  0  0  0  0  0  0  0  0
   -1.3756  -49.7910   25.9567 C   0  0  0  0  0  0  0  0  0  0  0  0
   -2.8339  -49.8833   25.6179 C   0  0  0  0  0  0  0  0  0  0  0  0
   -3.3139  -50.9198   24.6456 C   0  0  0  0  0  0  0  0  0  0  0  0
   -4.7722  -51.0121   24.3068 Cl  0  0  0  0  0  0  0  0  0  0  0  0
   -2.3355  -51.8639   24.0121 C   0  0  0  0  0  0  0  0  0  0  0  0
   -0.8772  -51.7716   24.3509 C   0  0  0  0  0  0  0  0  0  0  0  0
   -3.8123  -48.9391   26.2514 C   0  0  0  0  0  0  0  0  0  0  0  0
   -4.7907  -47.9949   26.8849 N   0  0  0  0  0  0  0  0  0  0  0  0
    0.1012  -52.7159   23.7174 N   0  0  0  0  0  0  0  0  0  0  0  0
    0.5161  -52.5193   22.2894 C   0  0  0  0  0  0  0  0  0  0  0  0
    0.9900  -53.6887   21.4783 C   0  0  0  0  0  0  0  0  0  0  0  0
    1.4049  -53.4921   20.0503 C   0  0  0  0  0  0  0  0  0  0  0  0
    1.3458  -52.1261   19.4334 C   0  0  0  0  0  0  0  0  0  0  0  0
    0.8719  -50.9567   20.2445 C   0  0  0  0  0  0  0  0  0  0  0  0
    0.8129  -49.5907   19.6276 F   0  0  0  0  0  0  0  0  0  0  0  0
    0.4570  -51.1533   21.6725 C   0  0  0  0  0  0  0  0  0  0  0  0
    1.7607  -51.9295   18.0054 C   0  0  0  0  0  0  0  0  0  0  0  0
    2.1756  -51.7329   16.5773 N   0  0  0  0  0  0  0  0  0  0  0  0
    1.0611  -50.6429   25.6620 O   0  0  0  0  0  0  0  0  0  0  0  0
    1.7047  -51.7060   26.5018 C   0  0  0  0  0  0  0  0  0  0  0  0
    0.9902  -52.2462   27.7050 C   0  0  0  0  0  0  0  0  0  0  0  0
    0.2111  -54.6068   26.9494 C   0  0  0  0  0  0  0  0  0  0  0  0
   -0.1006  -53.2620   27.5362 N   0  3  0  0  0  0  0  0  0  0  0  0
   -1.5031  -52.9330   27.9542 C   0  0  0  0  0  0  0  0  0  0  0  0
   -1.0454  -49.0779   26.6256 H   0  0  0  0  0  0  0  0  0  0  0  0
   -2.6657  -52.5770   23.3431 H   0  0  0  0  0  0  0  0  0  0  0  0
    0.4710  -53.4646   24.2389 H   0  0  0  0  0  0  0  0  0  0  0  0
    1.0306  -54.6285   21.9027 H   0  0  0  0  0  0  0  0  0  0  0  0
    1.7310  -54.2966   19.4923 H   0  0  0  0  0  0  0  0  0  0  0  0
    0.1309  -50.3488   22.2305 H   0  0  0  0  0  0  0  0  0  0  0  0
    1.8939  -52.5376   25.8557 H   0  0  0  0  0  0  0  0  0  0  0  0
    2.5526  -51.2072   26.9226 H   0  0  0  0  0  0  0  0  0  0  0  0
    1.7340  -52.6928   28.3312 H   0  0  0  0  0  0  0  0  0  0  0  0
    0.4731  -51.3914   28.0883 H   0  0  0  0  0  0  0  0  0  0  0  0
   -0.6829  -55.1932   26.9067 H   0  0  0  0  0  0  0  0  0  0  0  0
    0.9347  -55.1038   27.5611 H   0  0  0  0  0  0  0  0  0  0  0  0
    0.6038  -54.4827   25.9618 H   0  0  0  0  0  0  0  0  0  0  0  0
    0.6597  -52.5900   27.6398 H   0  0  0  0  0  0  0  0  0  0  0  0
   -2.1390  -53.7714   27.7602 H   0  0  0  0  0  0  0  0  0  0  0  0
   -1.8508  -52.0859   27.4006 H   0  0  0  0  0  0  0  0  0  0  0  0
   -1.5199  -52.7070   28.9999 H   0  0  0  0  0  0  0  0  0  0  0  0
  1  2  2  0  0  0  0
  2  3  1  0  0  0  0
  2 26  1  0  0  0  0
  3  8  1  0  0  0  0
  3  4  2  0  0  0  0
  4  5  1  0  0  0  0
  4  6  1  0  0  0  0
  6  7  2  0  0  0  0
  6 27  1  0  0  0  0
  7 10  1  0  0  0  0
  7  1  1  0  0  0  0
  8  9  3  0  0  0  0
 10 11  1  0  0  0  0
 10 28  1  0  0  0  0
 11 12  2  0  0  0  0
 12 13  1  0  0  0  0
 12 29  1  0  0  0  0
 13 14  2  0  0  0  0
 13 30  1  0  0  0  0
 14 18  1  0  0  0  0
 14 15  1  0  0  0  0
 15 16  1  0  0  0  0
 15 17  2  0  0  0  0
 17 11  1  0  0  0  0
 17 31  1  0  0  0  0
 18 19  3  0  0  0  0
 20  1  1  0  0  0  0
 21 20  1  0  0  0  0
 21 32  1  0  0  0  0
 21 33  1  0  0  0  0
 22 21  1  0  0  0  0
 22 34  1  0  0  0  0
 22 35  1  0  0  0  0
 23 24  1  0  0  0  0
 23 36  1  0  0  0  0
 23 37  1  0  0  0  0
 23 38  1  0  0  0  0
 24 25  1  0  0  0  0
 24 22  1  0  0  0  0
 24 39  1  0  0  0  0
 25 40  1  0  0  0  0
 25 41  1  0  0  0  0
 25 42  1  0  0  0  0
M  CHG  1  24   1
M  END
>  <minimizedAffinity>
-6.62713

$$$$

 OpenBabel09092411003D

 49 50  0  0  0  0  0  0  0  0999 V2000
   -0.4408  -50.4543   21.5579 C   0  0  0  0  0  0  0  0  0  0  0  0
   -0.4166  -49.3355   20.5592 C   0  0  0  0  0  0  0  0  0  0  0  0
   -0.9656  -47.9891   20.9279 C   0  0  0  0  0  0  0  0  0  0  0  0
   -0.9414  -46.8701   19.9291 Cl  0  0  0  0  0  0  0  0  0  0  0  0
   -1.5386  -47.7616   22.2953 C   0  0  0  0  0  0  0  0  0  0  0  0
   -1.5627  -48.8805   23.2940 C   0  0  0  0  0  0  0  0  0  0  0  0
   -1.0138  -50.2269   22.9253 C   0  0  0  0  0  0  0  0  0  0  0  0
   -2.0875  -46.4152   22.6640 C   0  0  0  0  0  0  0  0  0  0  0  0
   -1.1800  -45.3658   23.2342 O   0  0  0  0  0  0  0  0  0  0  0  0
   -3.5439  -46.1183   22.4626 N   0  0  0  0  0  0  0  0  0  0  0  0
   -4.0929  -44.7719   22.8313 C   0  0  0  0  0  0  0  0  0  0  0  0
   -4.4515  -47.1677   21.8924 C   0  0  0  0  0  0  0  0  0  0  0  0
   -1.0379  -51.3458   23.9241 N   0  0  0  0  0  0  0  0  0  0  0  0
    0.0258  -51.4334   24.9781 C   0  0  0  0  0  0  0  0  0  0  0  0
    1.4540  -51.1362   24.6287 C   0  0  0  0  0  0  0  0  0  0  0  0
    2.5177  -51.2238   25.6827 C   0  0  0  0  0  0  0  0  0  0  0  0
    2.1532  -51.6085   27.0860 C   0  0  0  0  0  0  0  0  0  0  0  0
    3.2170  -51.6961   28.1400 F   0  0  0  0  0  0  0  0  0  0  0  0
    0.7251  -51.9056   27.4353 C   0  0  0  0  0  0  0  0  0  0  0  0
   -0.3386  -51.8181   26.3813 C   0  0  0  0  0  0  0  0  0  0  0  0
   -1.7669  -52.1152   26.7307 C   0  0  0  0  0  0  0  0  0  0  0  0
   -3.1950  -52.4123   27.0800 N   0  0  0  0  0  0  0  0  0  0  0  0
    0.1082  -51.8007   21.1892 O   0  0  0  0  0  0  0  0  0  0  0  0
    0.0826  -52.2554   19.7601 C   0  0  0  0  0  0  0  0  0  0  0  0
    2.9343  -52.3540   17.0018 C   0  0  0  0  0  0  0  0  0  0  0  0
    1.6529  -52.0154   17.7042 N   0  0  0  0  0  0  0  0  0  0  0  0
    0.6605  -51.0982   17.0532 C   0  0  0  0  0  0  0  0  0  0  0  0
    1.3640  -52.5940   19.0577 C   0  0  0  0  0  0  0  0  0  0  0  0
    2.3564  -53.5112   19.7086 O   0  0  0  0  0  0  0  0  0  0  0  0
   -0.0223  -49.4920   19.6184 H   0  0  0  0  0  0  0  0  0  0  0  0
   -1.9569  -48.7240   24.2348 H   0  0  0  0  0  0  0  0  0  0  0  0
   -3.3055  -44.1596   23.2186 H   0  0  0  0  0  0  0  0  0  0  0  0
   -4.8531  -44.8882   23.5753 H   0  0  0  0  0  0  0  0  0  0  0  0
   -4.5117  -44.3075   21.9630 H   0  0  0  0  0  0  0  0  0  0  0  0
   -3.8887  -48.0553   21.6919 H   0  0  0  0  0  0  0  0  0  0  0  0
   -4.8859  -46.8078   20.9832 H   0  0  0  0  0  0  0  0  0  0  0  0
   -5.2273  -47.3885   22.5954 H   0  0  0  0  0  0  0  0  0  0  0  0
   -1.7519  -52.0227   23.8879 H   0  0  0  0  0  0  0  0  0  0  0  0
    1.7047  -50.8715   23.6633 H   0  0  0  0  0  0  0  0  0  0  0  0
    3.5003  -51.0194   25.4424 H   0  0  0  0  0  0  0  0  0  0  0  0
    0.4743  -52.1702   28.4008 H   0  0  0  0  0  0  0  0  0  0  0  0
   -0.5295  -53.1324   19.7259 H   0  0  0  0  0  0  0  0  0  0  0  0
   -0.2658  -51.3916   19.2334 H   0  0  0  0  0  0  0  0  0  0  0  0
    2.9658  -51.8537   16.0565 H   0  0  0  0  0  0  0  0  0  0  0  0
    2.9879  -53.4115   16.8477 H   0  0  0  0  0  0  0  0  0  0  0  0
    3.7632  -52.0383   17.6002 H   0  0  0  0  0  0  0  0  0  0  0  0
    1.0343  -50.7870   16.1001 H   0  0  0  0  0  0  0  0  0  0  0  0
    0.5074  -50.2401   17.6738 H   0  0  0  0  0  0  0  0  0  0  0  0
   -0.2681  -51.6132   16.9213 H   0  0  0  0  0  0  0  0  0  0  0  0
  1  2  2  0  0  0  0
  2  3  1  0  0  0  0
  2 30  1  0  0  0  0
  3  4  1  0  0  0  0
  3  5  2  0  0  0  0
  5  8  1  0  0  0  0
  5  6  1  0  0  0  0
  6  7  2  0  0  0  0
  6 31  1  0  0  0  0
  7 13  1  0  0  0  0
  7  1  1  0  0  0  0
  8  9  2  0  0  0  0
  8 10  1  0  0  0  0
 10 11  1  0  0  0  0
 10 12  1  0  0  0  0
 11 32  1  0  0  0  0
 11 33  1  0  0  0  0
 11 34  1  0  0  0  0
 12 35  1  0  0  0  0
 12 36  1  0  0  0  0
 12 37  1  0  0  0  0
 13 14  1  0  0  0  0
 13 38  1  0  0  0  0
 14 15  2  0  0  0  0
 15 16  1  0  0  0  0
 15 39  1  0  0  0  0
 16 17  2  0  0  0  0
 16 40  1  0  0  0  0
 17 18  1  0  0  0  0
 17 19  1  0  0  0  0
 19 20  2  0  0  0  0
 19 41  1  0  0  0  0
 20 21  1  0  0  0  0
 20 14  1  0  0  0  0
 21 22  3  0  0  0  0
 23  1  1  0  0  0  0
 24 23  1  0  0  0  0
 24 42  1  0  0  0  0
 24 43  1  0  0  0  0
 25 26  1  0  0  0  0
 25 44  1  0  0  0  0
 25 45  1  0  0  0  0
 25 46  1  0  0  0  0
 26 27  1  0  0  0  0
 26 28  1  0  0  0  0
 27 47  1  0  0  0  0
 27 48  1  0  0  0  0
 27 49  1  0  0  0  0
 28 29  2  0  0  0  0
 28 24  1  0  0  0  0
M  END
>  <minimizedAffinity>
-7.33716

$$$$

 OpenBabel09092411003D

 49 51  0  0  0  0  0  0  0  0999 V2000
    1.3057  -53.2025   22.2772 C   0  0  0  0  0  0  0  0  0  0  0  0
    0.6799  -51.9028   21.8660 C   0  0  0  0  0  0  0  0  0  0  0  0
    0.7778  -51.4406   20.4423 C   0  0  0  0  0  0  0  0  0  0  0  0
    1.5015  -52.2780   19.4299 C   0  0  0  0  0  0  0  0  0  0  0  0
    2.1273  -53.5777   19.8412 N   0  0  0  0  0  0  0  0  0  0  0  0
    2.0295  -54.0400   21.2647 C   0  0  0  0  0  0  0  0  0  0  0  0
    1.5994  -51.8157   18.0063 N   0  0  0  0  0  0  0  0  0  0  0  0
    2.6573  -52.3805   17.1054 C   0  0  0  0  0  0  0  0  0  0  0  0
    2.7552  -51.9182   15.6817 C   0  0  0  0  0  0  0  0  0  0  0  0
    1.7950  -50.8911   15.1591 N   0  3  0  0  0  0  0  0  0  0  0  0
    1.8929  -50.4288   13.7355 C   0  0  0  0  0  0  0  0  0  0  0  0
    0.7371  -50.3263   16.0600 C   0  0  0  0  0  0  0  0  0  0  0  0
    0.6392  -50.7886   17.4836 C   0  0  0  0  0  0  0  0  0  0  0  0
    1.2079  -53.6648   23.7008 N   0  0  0  0  0  0  0  0  0  0  0  0
   -1.6423  -52.1985   26.0410 C   0  0  0  0  0  0  0  0  0  0  0  0
   -0.8922  -51.1138   26.7556 C   0  0  0  0  0  0  0  0  0  0  0  0
    0.5579  -50.8794   26.4520 C   0  0  0  0  0  0  0  0  0  0  0  0
    1.2580  -51.7297   25.4337 C   0  0  0  0  0  0  0  0  0  0  0  0
    0.5079  -52.8144   24.7191 C   0  0  0  0  0  0  0  0  0  0  0  0
   -0.9423  -53.0488   25.0227 C   0  0  0  0  0  0  0  0  0  0  0  0
   -3.0924  -52.4328   26.3446 O   0  0  0  0  0  0  0  0  0  0  0  0
   -4.1496  -51.7701   25.5121 C   0  0  0  0  0  0  0  0  0  0  0  0
   -3.7571  -51.6500   22.9466 C   0  0  0  0  0  0  0  0  0  0  0  0
   -3.7627  -50.9874   24.2924 C   0  0  0  0  0  0  0  0  0  0  0  0
    0.1820  -51.3266   22.5625 H   0  0  0  0  0  0  0  0  0  0  0  0
    0.3472  -50.5464   20.1593 H   0  0  0  0  0  0  0  0  0  0  0  0
    2.4601  -54.9342   21.5476 H   0  0  0  0  0  0  0  0  0  0  0  0
    2.5054  -53.4393   17.0766 H   0  0  0  0  0  0  0  0  0  0  0  0
    3.5674  -52.0258   17.5423 H   0  0  0  0  0  0  0  0  0  0  0  0
    2.6437  -52.7866   15.0666 H   0  0  0  0  0  0  0  0  0  0  0  0
    3.6974  -51.4119   15.6517 H   0  0  0  0  0  0  0  0  0  0  0  0
    0.9244  -51.1443   15.6264 H   0  0  0  0  0  0  0  0  0  0  0  0
    2.9162  -50.2289   13.4950 H   0  0  0  0  0  0  0  0  0  0  0  0
    1.3161  -49.5364   13.6098 H   0  0  0  0  0  0  0  0  0  0  0  0
    1.5163  -51.1913   13.0862 H   0  0  0  0  0  0  0  0  0  0  0  0
   -0.2056  -50.5390   15.6006 H   0  0  0  0  0  0  0  0  0  0  0  0
    1.0176  -49.2980   16.1541 H   0  0  0  0  0  0  0  0  0  0  0  0
   -0.3438  -51.1918   17.6105 H   0  0  0  0  0  0  0  0  0  0  0  0
    0.8874  -49.9119   18.0445 H   0  0  0  0  0  0  0  0  0  0  0  0
    1.6031  -54.5263   23.9668 H   0  0  0  0  0  0  0  0  0  0  0  0
   -1.3738  -50.5288   27.4562 H   0  0  0  0  0  0  0  0  0  0  0  0
    1.0739  -50.1331   26.9437 H   0  0  0  0  0  0  0  0  0  0  0  0
    2.2557  -51.5684   25.2248 H   0  0  0  0  0  0  0  0  0  0  0  0
   -1.4584  -53.7951   24.5310 H   0  0  0  0  0  0  0  0  0  0  0  0
   -4.8146  -52.5421   25.1856 H   0  0  0  0  0  0  0  0  0  0  0  0
   -4.5467  -51.0235   26.1677 H   0  0  0  0  0  0  0  0  0  0  0  0
   -3.4909  -51.1115   22.1074 H   0  0  0  0  0  0  0  0  0  0  0  0
   -4.0194  -52.6443   22.8599 H   0  0  0  0  0  0  0  0  0  0  0  0
   -3.5004  -49.9931   24.3791 H   0  0  0  0  0  0  0  0  0  0  0  0
  1  2  2  0  0  0  0
  2  3  1  0  0  0  0
  2 25  1  0  0  0  0
  3  4  2  0  0  0  0
  3 26  1  0  0  0  0
  4  7  1  0  0  0  0
  4  5  1  0  0  0  0
  5  6  2  0  0  0  0
  6  1  1  0  0  0  0
  6 27  1  0  0  0  0
  7  8  1  0  0  0  0
  8  9  1  0  0  0  0
  8 28  1  0  0  0  0
  8 29  1  0  0  0  0
  9 10  1  0  0  0  0
  9 30  1  0  0  0  0
  9 31  1  0  0  0  0
 10 11  1  0  0  0  0
 10 12  1  0  0  0  0
 10 32  1  0  0  0  0
 11 33  1  0  0  0  0
 11 34  1  0  0  0  0
 11 35  1  0  0  0  0
 12 13  1  0  0  0  0
 12 36  1  0  0  0  0
 12 37  1  0  0  0  0
 13  7  1  0  0  0  0
 13 38  1  0  0  0  0
 13 39  1  0  0  0  0
 14  1  1  0  0  0  0
 14 40  1  0  0  0  0
 15 16  2  0  0  0  0
 16 17  1  0  0  0  0
 16 41  1  0  0  0  0
 17 18  2  0  0  0  0
 17 42  1  0  0  0  0
 18 19  1  0  0  0  0
 18 43  1  0  0  0  0
 19 14  1  0  0  0  0
 19 20  2  0  0  0  0
 20 15  1  0  0  0  0
 20 44  1  0  0  0  0
 21 15  1  0  0  0  0
 22 21  1  0  0  0  0
 22 45  1  0  0  0  0
 22 46  1  0  0  0  0
 23 24  2  0  0  0  0
 23 47  1  0  0  0  0
 23 48  1  0  0  0  0
 24 22  1  0  0  0  0
 24 49  1  0  0  0  0
M  CHG  1  10   1
M  END
>  <minimizedAffinity>
-7.03098

$$$$
