Untitled Document-1
     RDKit          3D

 31 32  0  0  0  0  0  0  0  0999 V2000
   -1.4020   -0.4365   -0.3503 C   0  0  0  0  0  0  0  0  0  0  0  0
   -2.7876   -0.0264   -0.2039 C   0  0  0  0  0  0  0  0  0  0  0  0
   -3.2552    1.0810    0.4462 C   0  0  0  0  0  0  0  0  0  0  0  0
   -4.6036    1.4079    0.5440 C   0  0  0  0  0  0  0  0  0  0  0  0
   -5.5205    0.5761   -0.0430 C   0  0  0  0  0  0  0  0  0  0  0  0
   -5.1132   -0.5534   -0.7114 C   0  0  0  0  0  0  0  0  0  0  0  0
   -3.7697   -0.8395   -0.7843 C   0  0  0  0  0  0  0  0  0  0  0  0
   -1.1726   -1.5194   -1.0038 O   0  0  0  0  0  0  0  0  0  0  0  0
   -0.2642    0.2149    0.1421 N   0  0  0  0  0  0  0  0  0  0  0  0
    1.0970   -0.2002    0.0001 C   0  0  0  0  0  0  0  0  0  0  0  0
    2.0587    0.7947    0.2060 C   0  0  0  0  0  0  0  0  0  0  0  0
    3.3916    0.4966    0.1111 C   0  0  0  0  0  0  0  0  0  0  0  0
    3.8268   -0.7737   -0.1859 C   0  0  0  0  0  0  0  0  0  0  0  0
    2.8740   -1.7497   -0.3874 C   0  0  0  0  0  0  0  0  0  0  0  0
    1.4997   -1.4732   -0.2962 C   0  0  0  0  0  0  0  0  0  0  0  0
    5.1850   -1.1044   -0.2891 O   0  0  0  0  0  0  0  0  0  0  0  0
    6.1129   -0.0602   -0.0716 C   0  0  0  0  0  0  0  0  0  0  0  0
   -6.5635   -1.7928   -1.5925 I   0  0  0  0  0  0  0  0  0  0  0  0
   -2.3662    1.9305    1.0419 O   0  0  0  0  0  0  0  0  0  0  0  0
   -4.9409    2.2929    1.0664 H   0  0  0  0  0  0  0  0  0  0  0  0
   -6.5861    0.7976    0.0115 H   0  0  0  0  0  0  0  0  0  0  0  0
   -3.4971   -1.7486   -1.3267 H   0  0  0  0  0  0  0  0  0  0  0  0
   -0.4184    1.0963    0.6790 H   0  0  0  0  0  0  0  0  0  0  0  0
    1.7451    1.8062    0.4400 H   0  0  0  0  0  0  0  0  0  0  0  0
    4.1220    1.2778    0.2732 H   0  0  0  0  0  0  0  0  0  0  0  0
    3.1357   -2.7600   -0.6219 H   0  0  0  0  0  0  0  0  0  0  0  0
    0.7834   -2.2399   -0.4430 H   0  0  0  0  0  0  0  0  0  0  0  0
    5.9791    0.7745   -0.8063 H   0  0  0  0  0  0  0  0  0  0  0  0
    5.8418    0.3929    0.9265 H   0  0  0  0  0  0  0  0  0  0  0  0
    7.1537   -0.4263   -0.0464 H   0  0  0  0  0  0  0  0  0  0  0  0
   -2.5459    2.7643    1.5448 H   0  0  0  0  0  0  0  0  0  0  0  0
  1  2  1  0
  2  3  2  0
  3  4  1  0
  4  5  2  0
  5  6  1  0
  6  7  2  0
  2  7  1  0
  1  8  2  0
  1  9  1  0
 10 11  2  0
 11 12  1  0
 12 13  2  0
 13 14  1  0
 14 15  2  0
 10 15  1  0
 16 17  1  0
 13 16  1  0
  9 10  1  0
  6 18  1  0
  3 19  1  0
  4 20  1  0
  5 21  1  0
  7 22  1  0
  9 23  1  0
 11 24  1  0
 12 25  1  0
 14 26  1  0
 15 27  1  0
 17 28  1  0
 17 29  1  0
 17 30  1  0
 19 31  1  0
M  END
>  <From>  (1) 
www.bindingDB.org

>  <BindingDB Reactant_set_id>  (1) 
408371

>  <Ligand InChI>  (1) 
InChI=1S/C14H12INO3/c1-19-11-5-3-10(4-6-11)16-14(18)12-8-9(15)2-7-13(12)17/h2-8,17H,1H3,(H,16,18)

>  <Ligand InChI Key>  (1) 
WJUFTZFAQYHROG-UHFFFAOYSA-N

>  <BindingDB MonomerID>  (1) 
234326

>  <BindingDB Ligand Name>  (1) 
2-Hydroxy-5-iodo-N-(4-methoxyphenyl)benzamide (28)

>  <Target Name>  (1) 
Epidermal growth factor receptor [645-1186]

>  <Target Source Organism According to Curator or DataSource>  (1) 


>  <Ki (nM)>  (1) 


>  <IC50 (nM)>  (1) 
 630

>  <Kd (nM)>  (1) 


>  <EC50 (nM)>  (1) 


>  <kon (M-1-s-1)>  (1) 


>  <koff (s-1)>  (1) 


>  <pH>  (1) 
7.4

>  <Temp C>  (1) 
25.00

>  <Curation/DataSource>  (1) 
Curated from the literature by BindingDB

>  <Article DOI>  (1) 
10.3109/14756361003671060

>  <BindingDB Entry DOI>  (1) 
10.7270/Q2XW4HPN

>  <PMID>  (1) 
20583855

>  <PubChem AID>  (1) 
aid1802974

>  <Patent Number>  (1) 


>  <Authors>  (1) 
Zhu, ZW; Shi, L; Ruan, XM; Yang, Y; Li, HQ; Xu, SP; Zhu, HL

>  <Institution>  (1) 
Nanjing University

>  <Link to Ligand in BindingDB>  (1) 
http://www.bindingdb.org/bind/chemsearch/marvin/MolStructure.jsp?monomerid=234326

>  <Link to Ligand-Target Pair in BindingDB>  (1) 
http://www.bindingdb.org/jsp/dbsearch/PrimarySearch_ki.jsp?energyterm=kJ/mole&tag=r21&monomerid=234326&enzyme=Epidermal+growth+factor+receptor+%5B645-1186%5D&column=ki&startPg=0&Increment=50&submit=Search

>  <Ligand HET ID in PDB>  (1) 


>  <PDB ID(s) for Ligand-Target Complex>  (1) 


>  <PubChem CID of Ligand>  (1) 
27228916

>  <PubChem SID of Ligand>  (1) 
340094315

>  <ChEBI ID of Ligand>  (1) 


>  <ChEMBL ID of Ligand>  (1) 


>  <DrugBank ID of Ligand>  (1) 


>  <IUPHAR_GRAC ID of Ligand>  (1) 


>  <KEGG ID of Ligand>  (1) 


>  <ZINC ID of Ligand>  (1) 


>  <Number of Protein Chains in Target (bigger than 1 implies a multichain complex)>  (1) 
1

>  <BindingDB Target Chain Sequence>  (1) 
SIATGMVGALLLLLVVALGIGLFMRRRHIVRKRTLRRLLQERELVEPLTPSGEAPNQALLRILKETEFKKIKVLGSGAFGTVYKGLWIPEGEKVKIPVAIKELREATSPKANKEILDEAYVMASVDNPHVCRLLGICLTSTVQLITQLMPFGCLLDYVREHKDNIGSQYLLNWCVQIAKGMNYLEDRRLVHRDLAARNVLVKTPQHVKITDFGLAKLLGAEEKEYHAEGGKVPIKWMALESILHRIYTHQSDVWSYGVTVWELMTFGSKPYDGIPASEISSILEKGERLPQPPICTIDVYMIMVKCWMIDADSRPKFRELIIEFSKMARDPQRYLVIQGDERMHLPSPTDSNFYRALMDEEDMDDVVDADEYLIPQQGFFSSPSTSRTPLLSSLSATSNNSTVACIDRNGLQSCPIKEDSFLQRYSSDPTGALTEDSIDDTFLPVPEYINQSVPKRPAGSVQNPVYHNQPLNPAPSRDPHYQDPHSTAVGNPEYLNTVQPTCVNSTFDSPAHWAQKGSHQISLDNPDYQQDFFPKEAKPNGI

>  <PDB ID(s) of Target Chain>  (1) 
1M14,1M17,1XKK,1Z9I,2GS2,2GS6,2ITW,2ITX,2ITY,2J5E,2J5F,2J6M,2RF9,2RGP,3BEL,3GOP,3POZ,3VJO,3W2O,3W2P,3W2Q,3W2R,3W2S,3W32,3W33,4G5J,4I23,4JQ7,4JQ8,4JR3,4JRV,4LI5,4RJ4,4RJ5,4RJ6,4RJ7,4RJ8,4TKS,4WKQ,4WRG,4ZAU,5C8K,5C8M,5C8N,5CAL,5CAN,5CAO,5CAP,5CAQ,5CAS,5CAU,5CAV,5EDP,5EDQ,5EDR,5EM5,5EM6,5EM7,5EM8,5GNK,5HCX,5HCY,5HCZ,5HIB,5HIC,5UGB,5Y25,6D8E,6JZ0,6S89,6S8A,6VH4,6VHN,6VHP,7AEI,7AEM,7B85,7OXB,7SI1,7UKV,7ZYM,7ZYN,7ZYP,8A27,8A2A,8HY7

>  <UniProt (SwissProt) Recommended Name of Target Chain>  (1) 
Epidermal growth factor receptor

>  <UniProt (SwissProt) Entry Name of Target Chain>  (1) 
EGFR_HUMAN

>  <UniProt (SwissProt) Primary ID of Target Chain>  (1) 
P00533

>  <UniProt (SwissProt) Secondary ID(s) of Target Chain>  (1) 
O00688 O00732 P06268 Q14225 Q68GS5 Q92795 Q9BZS2 Q9GZX1 Q9H2C9 Q9H3C9 Q9UMD7 Q9UMD8 Q9UMG5

>  <UniProt (SwissProt) Alternative ID(s) of Target Chain>  (1) 


>  <UniProt (TrEMBL) Submitted Name of Target Chain>  (1) 


>  <UniProt (TrEMBL) Entry Name of Target Chain>  (1) 


>  <UniProt (TrEMBL) Primary ID of Target Chain>  (1) 


>  <UniProt (TrEMBL) Secondary ID(s) of Target Chain>  (1) 


>  <UniProt (TrEMBL) Alternative ID(s) of Target Chain>  (1) 


$$$$
Untitled Document-1
     RDKit          3D

 27 28  0  0  0  0  0  0  0  0999 V2000
   -1.3794   -0.4500   -0.5250 C   0  0  0  0  0  0  0  0  0  0  0  0
   -2.8011   -0.1079   -0.2811 C   0  0  0  0  0  0  0  0  0  0  0  0
   -3.8204   -1.0632   -0.4870 C   0  0  0  0  0  0  0  0  0  0  0  0
   -5.1610   -0.7147   -0.2652 C   0  0  0  0  0  0  0  0  0  0  0  0
   -5.4948    0.5725    0.1587 C   0  0  0  0  0  0  0  0  0  0  0  0
   -4.4932    1.5240    0.3594 C   0  0  0  0  0  0  0  0  0  0  0  0
   -3.1541    1.1883    0.1387 C   0  0  0  0  0  0  0  0  0  0  0  0
   -1.0860   -1.2245   -1.4764 O   0  0  0  0  0  0  0  0  0  0  0  0
   -0.3369    0.1100    0.2940 N   0  0  0  0  0  0  0  0  0  0  0  0
   -5.0023    3.4738    0.9828 I   0  0  0  0  0  0  0  0  0  0  0  0
   -3.5022   -2.3585   -0.8959 O   0  0  0  0  0  0  0  0  0  0  0  0
    1.0567   -0.1958    0.1194 C   0  0  0  0  0  0  0  0  0  0  0  0
    2.0225    0.8283    0.1922 C   0  0  0  0  0  0  0  0  0  0  0  0
    3.3812    0.5207    0.0513 C   0  0  0  0  0  0  0  0  0  0  0  0
    3.7873   -0.8006   -0.1487 C   0  0  0  0  0  0  0  0  0  0  0  0
    2.8378   -1.8223   -0.2046 C   0  0  0  0  0  0  0  0  0  0  0  0
    1.4794   -1.5247   -0.0663 C   0  0  0  0  0  0  0  0  0  0  0  0
    1.5193    2.6612    0.4391 Br  0  0  0  0  0  0  0  0  0  0  0  0
   -5.9459   -1.4445   -0.4182 H   0  0  0  0  0  0  0  0  0  0  0  0
   -6.5322    0.8308    0.3275 H   0  0  0  0  0  0  0  0  0  0  0  0
   -2.3984    1.9516    0.2701 H   0  0  0  0  0  0  0  0  0  0  0  0
   -0.5920    0.7927    1.0412 H   0  0  0  0  0  0  0  0  0  0  0  0
   -4.2179   -3.0602   -1.0447 H   0  0  0  0  0  0  0  0  0  0  0  0
    4.1239    1.3069    0.0958 H   0  0  0  0  0  0  0  0  0  0  0  0
    4.8390   -1.0331   -0.2553 H   0  0  0  0  0  0  0  0  0  0  0  0
    3.1549   -2.8473   -0.3473 H   0  0  0  0  0  0  0  0  0  0  0  0
    0.7614   -2.3343   -0.0805 H   0  0  0  0  0  0  0  0  0  0  0  0
  1  2  1  0
  2  3  2  0
  3  4  1  0
  4  5  2  0
  5  6  1  0
  6  7  2  0
  2  7  1  0
  1  8  2  0
  1  9  1  0
  6 10  1  0
  3 11  1  0
 12 13  2  0
 13 14  1  0
 14 15  2  0
 15 16  1  0
 16 17  2  0
 12 17  1  0
 13 18  1  0
  9 12  1  0
  4 19  1  0
  5 20  1  0
  7 21  1  0
  9 22  1  0
 11 23  1  0
 14 24  1  0
 15 25  1  0
 16 26  1  0
 17 27  1  0
M  END
>  <From>  (2) 
www.bindingDB.org

>  <BindingDB Reactant_set_id>  (2) 
408365

>  <Ligand InChI>  (2) 
InChI=1S/C13H9BrINO2/c14-10-3-1-2-4-11(10)16-13(18)9-7-8(15)5-6-12(9)17/h1-7,17H,(H,16,18)

>  <Ligand InChI Key>  (2) 
UJXWHCDXPOPQCH-UHFFFAOYSA-N

>  <BindingDB MonomerID>  (2) 
234320

>  <BindingDB Ligand Name>  (2) 
N-(2-bromophenyl)-2-hydroxy-5-iodobenzamide (22)

>  <Target Name>  (2) 
Epidermal growth factor receptor [645-1186]

>  <Target Source Organism According to Curator or DataSource>  (2) 


>  <Ki (nM)>  (2) 


>  <IC50 (nM)>  (2) 
 920

>  <Kd (nM)>  (2) 


>  <EC50 (nM)>  (2) 


>  <kon (M-1-s-1)>  (2) 


>  <koff (s-1)>  (2) 


>  <pH>  (2) 
7.4

>  <Temp C>  (2) 
25.00

>  <Curation/DataSource>  (2) 
Curated from the literature by BindingDB

>  <Article DOI>  (2) 
10.3109/14756361003671060

>  <BindingDB Entry DOI>  (2) 
10.7270/Q2XW4HPN

>  <PMID>  (2) 
20583855

>  <PubChem AID>  (2) 
aid1802974

>  <Patent Number>  (2) 


>  <Authors>  (2) 
Zhu, ZW; Shi, L; Ruan, XM; Yang, Y; Li, HQ; Xu, SP; Zhu, HL

>  <Institution>  (2) 
Nanjing University

>  <Link to Ligand in BindingDB>  (2) 
http://www.bindingdb.org/bind/chemsearch/marvin/MolStructure.jsp?monomerid=234320

>  <Link to Ligand-Target Pair in BindingDB>  (2) 
http://www.bindingdb.org/jsp/dbsearch/PrimarySearch_ki.jsp?energyterm=kJ/mole&tag=r21&monomerid=234320&enzyme=Epidermal+growth+factor+receptor+%5B645-1186%5D&column=ki&startPg=0&Increment=50&submit=Search

>  <Ligand HET ID in PDB>  (2) 


>  <PDB ID(s) for Ligand-Target Complex>  (2) 


>  <PubChem CID of Ligand>  (2) 
51351600

>  <PubChem SID of Ligand>  (2) 
340094309

>  <ChEBI ID of Ligand>  (2) 


>  <ChEMBL ID of Ligand>  (2) 


>  <DrugBank ID of Ligand>  (2) 


>  <IUPHAR_GRAC ID of Ligand>  (2) 


>  <KEGG ID of Ligand>  (2) 


>  <ZINC ID of Ligand>  (2) 


>  <Number of Protein Chains in Target (bigger than 1 implies a multichain complex)>  (2) 
1

>  <BindingDB Target Chain Sequence>  (2) 
SIATGMVGALLLLLVVALGIGLFMRRRHIVRKRTLRRLLQERELVEPLTPSGEAPNQALLRILKETEFKKIKVLGSGAFGTVYKGLWIPEGEKVKIPVAIKELREATSPKANKEILDEAYVMASVDNPHVCRLLGICLTSTVQLITQLMPFGCLLDYVREHKDNIGSQYLLNWCVQIAKGMNYLEDRRLVHRDLAARNVLVKTPQHVKITDFGLAKLLGAEEKEYHAEGGKVPIKWMALESILHRIYTHQSDVWSYGVTVWELMTFGSKPYDGIPASEISSILEKGERLPQPPICTIDVYMIMVKCWMIDADSRPKFRELIIEFSKMARDPQRYLVIQGDERMHLPSPTDSNFYRALMDEEDMDDVVDADEYLIPQQGFFSSPSTSRTPLLSSLSATSNNSTVACIDRNGLQSCPIKEDSFLQRYSSDPTGALTEDSIDDTFLPVPEYINQSVPKRPAGSVQNPVYHNQPLNPAPSRDPHYQDPHSTAVGNPEYLNTVQPTCVNSTFDSPAHWAQKGSHQISLDNPDYQQDFFPKEAKPNGI

>  <PDB ID(s) of Target Chain>  (2) 
1M14,1M17,1XKK,1Z9I,2GS2,2GS6,2ITW,2ITX,2ITY,2J5E,2J5F,2J6M,2RF9,2RGP,3BEL,3GOP,3POZ,3VJO,3W2O,3W2P,3W2Q,3W2R,3W2S,3W32,3W33,4G5J,4I23,4JQ7,4JQ8,4JR3,4JRV,4LI5,4RJ4,4RJ5,4RJ6,4RJ7,4RJ8,4TKS,4WKQ,4WRG,4ZAU,5C8K,5C8M,5C8N,5CAL,5CAN,5CAO,5CAP,5CAQ,5CAS,5CAU,5CAV,5EDP,5EDQ,5EDR,5EM5,5EM6,5EM7,5EM8,5GNK,5HCX,5HCY,5HCZ,5HIB,5HIC,5UGB,5Y25,6D8E,6JZ0,6S89,6S8A,6VH4,6VHN,6VHP,7AEI,7AEM,7B85,7OXB,7SI1,7UKV,7ZYM,7ZYN,7ZYP,8A27,8A2A,8HY7

>  <UniProt (SwissProt) Recommended Name of Target Chain>  (2) 
Epidermal growth factor receptor

>  <UniProt (SwissProt) Entry Name of Target Chain>  (2) 
EGFR_HUMAN

>  <UniProt (SwissProt) Primary ID of Target Chain>  (2) 
P00533

>  <UniProt (SwissProt) Secondary ID(s) of Target Chain>  (2) 
O00688 O00732 P06268 Q14225 Q68GS5 Q92795 Q9BZS2 Q9GZX1 Q9H2C9 Q9H3C9 Q9UMD7 Q9UMD8 Q9UMG5

>  <UniProt (SwissProt) Alternative ID(s) of Target Chain>  (2) 


>  <UniProt (TrEMBL) Submitted Name of Target Chain>  (2) 


>  <UniProt (TrEMBL) Entry Name of Target Chain>  (2) 


>  <UniProt (TrEMBL) Primary ID of Target Chain>  (2) 


>  <UniProt (TrEMBL) Secondary ID(s) of Target Chain>  (2) 


>  <UniProt (TrEMBL) Alternative ID(s) of Target Chain>  (2) 


$$$$
Untitled Document-1
     RDKit          3D

 30 31  0  0  0  0  0  0  0  0999 V2000
   -1.4119   -0.5696   -0.1780 C   0  0  0  0  0  0  0  0  0  0  0  0
   -2.8106   -0.0921   -0.2251 C   0  0  0  0  0  0  0  0  0  0  0  0
   -3.2260    1.0534    0.4870 C   0  0  0  0  0  0  0  0  0  0  0  0
   -4.5596    1.4809    0.4023 C   0  0  0  0  0  0  0  0  0  0  0  0
   -5.4828    0.7663   -0.3638 C   0  0  0  0  0  0  0  0  0  0  0  0
   -5.0832   -0.3837   -1.0476 C   0  0  0  0  0  0  0  0  0  0  0  0
   -3.7550   -0.8142   -0.9751 C   0  0  0  0  0  0  0  0  0  0  0  0
   -1.1939   -1.8022   -0.0252 O   0  0  0  0  0  0  0  0  0  0  0  0
   -0.3148    0.3523   -0.3102 N   0  0  0  0  0  0  0  0  0  0  0  0
    1.0690   -0.0366   -0.2993 C   0  0  0  0  0  0  0  0  0  0  0  0
    2.0109    0.7969    0.3213 C   0  0  0  0  0  0  0  0  0  0  0  0
    3.8005   -0.7248   -0.2951 C   0  0  0  0  0  0  0  0  0  0  0  0
    1.5113   -1.1973   -0.9585 C   0  0  0  0  0  0  0  0  0  0  0  0
    3.3665    0.4555    0.3259 C   0  0  0  0  0  0  0  0  0  0  0  0
    2.8674   -1.5382   -0.9549 C   0  0  0  0  0  0  0  0  0  0  0  0
    5.2598   -1.0701   -0.3264 C   0  0  0  0  0  0  0  0  0  0  0  0
   -6.4827   -1.4685   -2.1936 I   0  0  0  0  0  0  0  0  0  0  0  0
   -2.3288    1.7478    1.2984 O   0  0  0  0  0  0  0  0  0  0  0  0
   -4.8845    2.3616    0.9415 H   0  0  0  0  0  0  0  0  0  0  0  0
   -6.5102    1.1024   -0.4188 H   0  0  0  0  0  0  0  0  0  0  0  0
   -3.4564   -1.7030   -1.5175 H   0  0  0  0  0  0  0  0  0  0  0  0
   -0.5232    1.3741   -0.3670 H   0  0  0  0  0  0  0  0  0  0  0  0
    1.6911    1.7094    0.8088 H   0  0  0  0  0  0  0  0  0  0  0  0
    0.8181   -1.8237   -1.5033 H   0  0  0  0  0  0  0  0  0  0  0  0
    4.0771    1.1123    0.8123 H   0  0  0  0  0  0  0  0  0  0  0  0
    3.1907   -2.4318   -1.4745 H   0  0  0  0  0  0  0  0  0  0  0  0
    5.7714   -0.6914    0.5841 H   0  0  0  0  0  0  0  0  0  0  0  0
    5.7284   -0.6120   -1.2222 H   0  0  0  0  0  0  0  0  0  0  0  0
    5.4009   -2.1712   -0.3663 H   0  0  0  0  0  0  0  0  0  0  0  0
   -2.6107    2.5672    1.8236 H   0  0  0  0  0  0  0  0  0  0  0  0
  1  2  1  0
  2  3  2  0
  3  4  1  0
  4  5  2  0
  5  6  1  0
  6  7  2  0
  2  7  1  0
  1  8  2  0
  1  9  1  0
 10 11  2  0
 10 13  1  0
 11 14  1  0
 12 14  2  0
 12 15  1  0
 13 15  2  0
 12 16  1  0
  9 10  1  0
  6 17  1  0
  3 18  1  0
  4 19  1  0
  5 20  1  0
  7 21  1  0
  9 22  1  0
 11 23  1  0
 13 24  1  0
 14 25  1  0
 15 26  1  0
 16 27  1  0
 16 28  1  0
 16 29  1  0
 18 30  1  0
M  END
>  <From>  (3) 
www.bindingDB.org

>  <BindingDB Reactant_set_id>  (3) 
408370

>  <Ligand InChI>  (3) 
InChI=1S/C14H12INO2/c1-9-2-5-11(6-3-9)16-14(18)12-8-10(15)4-7-13(12)17/h2-8,17H,1H3,(H,16,18)

>  <Ligand InChI Key>  (3) 
FJIYUFGXIDULBA-UHFFFAOYSA-N

>  <BindingDB MonomerID>  (3) 
234325

>  <BindingDB Ligand Name>  (3) 
2-Hydroxy-5-iodo-N-p-tolylbenzamide (27)

>  <Target Name>  (3) 
Epidermal growth factor receptor [645-1186]

>  <Target Source Organism According to Curator or DataSource>  (3) 


>  <Ki (nM)>  (3) 


>  <IC50 (nM)>  (3) 
 2680

>  <Kd (nM)>  (3) 


>  <EC50 (nM)>  (3) 


>  <kon (M-1-s-1)>  (3) 


>  <koff (s-1)>  (3) 


>  <pH>  (3) 
7.4

>  <Temp C>  (3) 
25.00

>  <Curation/DataSource>  (3) 
Curated from the literature by BindingDB

>  <Article DOI>  (3) 
10.3109/14756361003671060

>  <BindingDB Entry DOI>  (3) 
10.7270/Q2XW4HPN

>  <PMID>  (3) 
20583855

>  <PubChem AID>  (3) 
aid1802974

>  <Patent Number>  (3) 


>  <Authors>  (3) 
Zhu, ZW; Shi, L; Ruan, XM; Yang, Y; Li, HQ; Xu, SP; Zhu, HL

>  <Institution>  (3) 
Nanjing University

>  <Link to Ligand in BindingDB>  (3) 
http://www.bindingdb.org/bind/chemsearch/marvin/MolStructure.jsp?monomerid=234325

>  <Link to Ligand-Target Pair in BindingDB>  (3) 
http://www.bindingdb.org/jsp/dbsearch/PrimarySearch_ki.jsp?energyterm=kJ/mole&tag=r21&monomerid=234325&enzyme=Epidermal+growth+factor+receptor+%5B645-1186%5D&column=ki&startPg=0&Increment=50&submit=Search

>  <Ligand HET ID in PDB>  (3) 


>  <PDB ID(s) for Ligand-Target Complex>  (3) 


>  <PubChem CID of Ligand>  (3) 
53259946

>  <PubChem SID of Ligand>  (3) 
340094314

>  <ChEBI ID of Ligand>  (3) 


>  <ChEMBL ID of Ligand>  (3) 


>  <DrugBank ID of Ligand>  (3) 


>  <IUPHAR_GRAC ID of Ligand>  (3) 


>  <KEGG ID of Ligand>  (3) 


>  <ZINC ID of Ligand>  (3) 


>  <Number of Protein Chains in Target (bigger than 1 implies a multichain complex)>  (3) 
1

>  <BindingDB Target Chain Sequence>  (3) 
SIATGMVGALLLLLVVALGIGLFMRRRHIVRKRTLRRLLQERELVEPLTPSGEAPNQALLRILKETEFKKIKVLGSGAFGTVYKGLWIPEGEKVKIPVAIKELREATSPKANKEILDEAYVMASVDNPHVCRLLGICLTSTVQLITQLMPFGCLLDYVREHKDNIGSQYLLNWCVQIAKGMNYLEDRRLVHRDLAARNVLVKTPQHVKITDFGLAKLLGAEEKEYHAEGGKVPIKWMALESILHRIYTHQSDVWSYGVTVWELMTFGSKPYDGIPASEISSILEKGERLPQPPICTIDVYMIMVKCWMIDADSRPKFRELIIEFSKMARDPQRYLVIQGDERMHLPSPTDSNFYRALMDEEDMDDVVDADEYLIPQQGFFSSPSTSRTPLLSSLSATSNNSTVACIDRNGLQSCPIKEDSFLQRYSSDPTGALTEDSIDDTFLPVPEYINQSVPKRPAGSVQNPVYHNQPLNPAPSRDPHYQDPHSTAVGNPEYLNTVQPTCVNSTFDSPAHWAQKGSHQISLDNPDYQQDFFPKEAKPNGI

>  <PDB ID(s) of Target Chain>  (3) 
1M14,1M17,1XKK,1Z9I,2GS2,2GS6,2ITW,2ITX,2ITY,2J5E,2J5F,2J6M,2RF9,2RGP,3BEL,3GOP,3POZ,3VJO,3W2O,3W2P,3W2Q,3W2R,3W2S,3W32,3W33,4G5J,4I23,4JQ7,4JQ8,4JR3,4JRV,4LI5,4RJ4,4RJ5,4RJ6,4RJ7,4RJ8,4TKS,4WKQ,4WRG,4ZAU,5C8K,5C8M,5C8N,5CAL,5CAN,5CAO,5CAP,5CAQ,5CAS,5CAU,5CAV,5EDP,5EDQ,5EDR,5EM5,5EM6,5EM7,5EM8,5GNK,5HCX,5HCY,5HCZ,5HIB,5HIC,5UGB,5Y25,6D8E,6JZ0,6S89,6S8A,6VH4,6VHN,6VHP,7AEI,7AEM,7B85,7OXB,7SI1,7UKV,7ZYM,7ZYN,7ZYP,8A27,8A2A,8HY7

>  <UniProt (SwissProt) Recommended Name of Target Chain>  (3) 
Epidermal growth factor receptor

>  <UniProt (SwissProt) Entry Name of Target Chain>  (3) 
EGFR_HUMAN

>  <UniProt (SwissProt) Primary ID of Target Chain>  (3) 
P00533

>  <UniProt (SwissProt) Secondary ID(s) of Target Chain>  (3) 
O00688 O00732 P06268 Q14225 Q68GS5 Q92795 Q9BZS2 Q9GZX1 Q9H2C9 Q9H3C9 Q9UMD7 Q9UMD8 Q9UMG5

>  <UniProt (SwissProt) Alternative ID(s) of Target Chain>  (3) 


>  <UniProt (TrEMBL) Submitted Name of Target Chain>  (3) 


>  <UniProt (TrEMBL) Entry Name of Target Chain>  (3) 


>  <UniProt (TrEMBL) Primary ID of Target Chain>  (3) 


>  <UniProt (TrEMBL) Secondary ID(s) of Target Chain>  (3) 


>  <UniProt (TrEMBL) Alternative ID(s) of Target Chain>  (3) 


$$$$
Untitled Document-1
     RDKit          3D

 27 28  0  0  0  0  0  0  0  0999 V2000
   -1.3754   -0.3469   -0.5104 C   0  0  0  0  0  0  0  0  0  0  0  0
   -2.8101   -0.0450   -0.2903 C   0  0  0  0  0  0  0  0  0  0  0  0
   -3.2041    1.0315    0.5342 C   0  0  0  0  0  0  0  0  0  0  0  0
   -4.5665    1.3103    0.7176 C   0  0  0  0  0  0  0  0  0  0  0  0
   -5.5376    0.5290    0.0892 C   0  0  0  0  0  0  0  0  0  0  0  0
   -5.1560   -0.5338   -0.7316 C   0  0  0  0  0  0  0  0  0  0  0  0
   -3.8008   -0.8188   -0.9235 C   0  0  0  0  0  0  0  0  0  0  0  0
   -0.5505    0.6041   -0.5878 O   0  0  0  0  0  0  0  0  0  0  0  0
   -0.9234   -1.7051   -0.6596 N   0  0  0  0  0  0  0  0  0  0  0  0
   -6.6255   -1.7015   -1.6940 I   0  0  0  0  0  0  0  0  0  0  0  0
   -2.2462    1.8126    1.1814 O   0  0  0  0  0  0  0  0  0  0  0  0
    0.4564   -2.0655   -0.8434 C   0  0  0  0  0  0  0  0  0  0  0  0
    0.8107   -3.0637   -1.7734 C   0  0  0  0  0  0  0  0  0  0  0  0
    2.1527   -3.4323   -1.9286 C   0  0  0  0  0  0  0  0  0  0  0  0
    3.1439   -2.8241   -1.1552 C   0  0  0  0  0  0  0  0  0  0  0  0
    2.7987   -1.8477   -0.2192 C   0  0  0  0  0  0  0  0  0  0  0  0
    1.4621   -1.4726   -0.0583 C   0  0  0  0  0  0  0  0  0  0  0  0
   -0.4024   -3.8418   -2.7820 Cl  0  0  0  0  0  0  0  0  0  0  0  0
   -4.8737    2.1323    1.3515 H   0  0  0  0  0  0  0  0  0  0  0  0
   -6.5861    0.7523    0.2379 H   0  0  0  0  0  0  0  0  0  0  0  0
   -3.5289   -1.6272   -1.5894 H   0  0  0  0  0  0  0  0  0  0  0  0
   -1.6281   -2.4753   -0.6624 H   0  0  0  0  0  0  0  0  0  0  0  0
   -2.5077    2.5865    1.7810 H   0  0  0  0  0  0  0  0  0  0  0  0
    2.4286   -4.1910   -2.6500 H   0  0  0  0  0  0  0  0  0  0  0  0
    4.1796   -3.1138   -1.2777 H   0  0  0  0  0  0  0  0  0  0  0  0
    3.5665   -1.3866    0.3886 H   0  0  0  0  0  0  0  0  0  0  0  0
    1.2116   -0.7377    0.6956 H   0  0  0  0  0  0  0  0  0  0  0  0
  1  2  1  0
  2  3  2  0
  3  4  1  0
  4  5  2  0
  5  6  1  0
  6  7  2  0
  2  7  1  0
  1  8  2  0
  1  9  1  0
  6 10  1  0
  3 11  1  0
 12 13  2  0
 13 14  1  0
 14 15  2  0
 15 16  1  0
 16 17  2  0
 12 17  1  0
 13 18  1  0
  9 12  1  0
  4 19  1  0
  5 20  1  0
  7 21  1  0
  9 22  1  0
 11 23  1  0
 14 24  1  0
 15 25  1  0
 16 26  1  0
 17 27  1  0
M  END
>  <From>  (4) 
www.bindingDB.org

>  <BindingDB Reactant_set_id>  (4) 
408364

>  <Ligand InChI>  (4) 
InChI=1S/C13H9ClINO2/c14-10-3-1-2-4-11(10)16-13(18)9-7-8(15)5-6-12(9)17/h1-7,17H,(H,16,18)

>  <Ligand InChI Key>  (4) 
RPTBKEZKPOPWDU-UHFFFAOYSA-N

>  <BindingDB MonomerID>  (4) 
234319

>  <BindingDB Ligand Name>  (4) 
N-(2-chlorophenyl)-2-hydroxy-5-iodobenzamide (21)

>  <Target Name>  (4) 
Epidermal growth factor receptor [645-1186]

>  <Target Source Organism According to Curator or DataSource>  (4) 


>  <Ki (nM)>  (4) 


>  <IC50 (nM)>  (4) 
 4370

>  <Kd (nM)>  (4) 


>  <EC50 (nM)>  (4) 


>  <kon (M-1-s-1)>  (4) 


>  <koff (s-1)>  (4) 


>  <pH>  (4) 
7.4

>  <Temp C>  (4) 
25.00

>  <Curation/DataSource>  (4) 
Curated from the literature by BindingDB

>  <Article DOI>  (4) 
10.3109/14756361003671060

>  <BindingDB Entry DOI>  (4) 
10.7270/Q2XW4HPN

>  <PMID>  (4) 
20583855

>  <PubChem AID>  (4) 
aid1802974

>  <Patent Number>  (4) 


>  <Authors>  (4) 
Zhu, ZW; Shi, L; Ruan, XM; Yang, Y; Li, HQ; Xu, SP; Zhu, HL

>  <Institution>  (4) 
Nanjing University

>  <Link to Ligand in BindingDB>  (4) 
http://www.bindingdb.org/bind/chemsearch/marvin/MolStructure.jsp?monomerid=234319

>  <Link to Ligand-Target Pair in BindingDB>  (4) 
http://www.bindingdb.org/jsp/dbsearch/PrimarySearch_ki.jsp?energyterm=kJ/mole&tag=r21&monomerid=234319&enzyme=Epidermal+growth+factor+receptor+%5B645-1186%5D&column=ki&startPg=0&Increment=50&submit=Search

>  <Ligand HET ID in PDB>  (4) 


>  <PDB ID(s) for Ligand-Target Complex>  (4) 


>  <PubChem CID of Ligand>  (4) 
113220402

>  <PubChem SID of Ligand>  (4) 
340094308

>  <ChEBI ID of Ligand>  (4) 


>  <ChEMBL ID of Ligand>  (4) 


>  <DrugBank ID of Ligand>  (4) 


>  <IUPHAR_GRAC ID of Ligand>  (4) 


>  <KEGG ID of Ligand>  (4) 


>  <ZINC ID of Ligand>  (4) 


>  <Number of Protein Chains in Target (bigger than 1 implies a multichain complex)>  (4) 
1

>  <BindingDB Target Chain Sequence>  (4) 
SIATGMVGALLLLLVVALGIGLFMRRRHIVRKRTLRRLLQERELVEPLTPSGEAPNQALLRILKETEFKKIKVLGSGAFGTVYKGLWIPEGEKVKIPVAIKELREATSPKANKEILDEAYVMASVDNPHVCRLLGICLTSTVQLITQLMPFGCLLDYVREHKDNIGSQYLLNWCVQIAKGMNYLEDRRLVHRDLAARNVLVKTPQHVKITDFGLAKLLGAEEKEYHAEGGKVPIKWMALESILHRIYTHQSDVWSYGVTVWELMTFGSKPYDGIPASEISSILEKGERLPQPPICTIDVYMIMVKCWMIDADSRPKFRELIIEFSKMARDPQRYLVIQGDERMHLPSPTDSNFYRALMDEEDMDDVVDADEYLIPQQGFFSSPSTSRTPLLSSLSATSNNSTVACIDRNGLQSCPIKEDSFLQRYSSDPTGALTEDSIDDTFLPVPEYINQSVPKRPAGSVQNPVYHNQPLNPAPSRDPHYQDPHSTAVGNPEYLNTVQPTCVNSTFDSPAHWAQKGSHQISLDNPDYQQDFFPKEAKPNGI

>  <PDB ID(s) of Target Chain>  (4) 
1M14,1M17,1XKK,1Z9I,2GS2,2GS6,2ITW,2ITX,2ITY,2J5E,2J5F,2J6M,2RF9,2RGP,3BEL,3GOP,3POZ,3VJO,3W2O,3W2P,3W2Q,3W2R,3W2S,3W32,3W33,4G5J,4I23,4JQ7,4JQ8,4JR3,4JRV,4LI5,4RJ4,4RJ5,4RJ6,4RJ7,4RJ8,4TKS,4WKQ,4WRG,4ZAU,5C8K,5C8M,5C8N,5CAL,5CAN,5CAO,5CAP,5CAQ,5CAS,5CAU,5CAV,5EDP,5EDQ,5EDR,5EM5,5EM6,5EM7,5EM8,5GNK,5HCX,5HCY,5HCZ,5HIB,5HIC,5UGB,5Y25,6D8E,6JZ0,6S89,6S8A,6VH4,6VHN,6VHP,7AEI,7AEM,7B85,7OXB,7SI1,7UKV,7ZYM,7ZYN,7ZYP,8A27,8A2A,8HY7

>  <UniProt (SwissProt) Recommended Name of Target Chain>  (4) 
Epidermal growth factor receptor

>  <UniProt (SwissProt) Entry Name of Target Chain>  (4) 
EGFR_HUMAN

>  <UniProt (SwissProt) Primary ID of Target Chain>  (4) 
P00533

>  <UniProt (SwissProt) Secondary ID(s) of Target Chain>  (4) 
O00688 O00732 P06268 Q14225 Q68GS5 Q92795 Q9BZS2 Q9GZX1 Q9H2C9 Q9H3C9 Q9UMD7 Q9UMD8 Q9UMG5

>  <UniProt (SwissProt) Alternative ID(s) of Target Chain>  (4) 


>  <UniProt (TrEMBL) Submitted Name of Target Chain>  (4) 


>  <UniProt (TrEMBL) Entry Name of Target Chain>  (4) 


>  <UniProt (TrEMBL) Primary ID of Target Chain>  (4) 


>  <UniProt (TrEMBL) Secondary ID(s) of Target Chain>  (4) 


>  <UniProt (TrEMBL) Alternative ID(s) of Target Chain>  (4) 


$$$$
Untitled Document-1
     RDKit          3D

 27 28  0  0  0  0  0  0  0  0999 V2000
   -1.3717   -0.3140   -0.6152 C   0  0  0  0  0  0  0  0  0  0  0  0
   -2.7955   -0.0082   -0.3568 C   0  0  0  0  0  0  0  0  0  0  0  0
   -3.1927    1.1975    0.2604 C   0  0  0  0  0  0  0  0  0  0  0  0
   -4.5530    1.4416    0.5015 C   0  0  0  0  0  0  0  0  0  0  0  0
   -5.5173    0.5091    0.1138 C   0  0  0  0  0  0  0  0  0  0  0  0
   -5.1316   -0.6728   -0.5221 C   0  0  0  0  0  0  0  0  0  0  0  0
   -3.7781   -0.9287   -0.7609 C   0  0  0  0  0  0  0  0  0  0  0  0
   -1.0463   -0.8174   -1.7248 O   0  0  0  0  0  0  0  0  0  0  0  0
   -0.3701   -0.0519    0.3834 N   0  0  0  0  0  0  0  0  0  0  0  0
   -6.5913   -2.0739   -1.1178 I   0  0  0  0  0  0  0  0  0  0  0  0
   -2.2465    2.1621    0.6064 O   0  0  0  0  0  0  0  0  0  0  0  0
    1.0324   -0.2966    0.1845 C   0  0  0  0  0  0  0  0  0  0  0  0
    1.9837    0.6513    0.6110 C   0  0  0  0  0  0  0  0  0  0  0  0
    3.3503    0.3980    0.4421 C   0  0  0  0  0  0  0  0  0  0  0  0
    3.7791   -0.7999   -0.1369 C   0  0  0  0  0  0  0  0  0  0  0  0
    2.8412   -1.7519   -0.5447 C   0  0  0  0  0  0  0  0  0  0  0  0
    1.4755   -1.5058   -0.3806 C   0  0  0  0  0  0  0  0  0  0  0  0
    5.4929   -1.1116   -0.3431 Cl  0  0  0  0  0  0  0  0  0  0  0  0
    1.4881    2.1799    1.3265 Cl  0  0  0  0  0  0  0  0  0  0  0  0
   -4.8649    2.3618    0.9790 H   0  0  0  0  0  0  0  0  0  0  0  0
   -6.5644    0.7093    0.3008 H   0  0  0  0  0  0  0  0  0  0  0  0
   -3.4924   -1.8535   -1.2470 H   0  0  0  0  0  0  0  0  0  0  0  0
   -0.6653    0.3649    1.2941 H   0  0  0  0  0  0  0  0  0  0  0  0
   -2.5131    3.0367    1.0430 H   0  0  0  0  0  0  0  0  0  0  0  0
    4.0792    1.1329    0.7604 H   0  0  0  0  0  0  0  0  0  0  0  0
    3.1693   -2.6867   -0.9813 H   0  0  0  0  0  0  0  0  0  0  0  0
    0.7671   -2.2701   -0.6721 H   0  0  0  0  0  0  0  0  0  0  0  0
  1  2  1  0
  2  3  2  0
  3  4  1  0
  4  5  2  0
  5  6  1  0
  6  7  2  0
  2  7  1  0
  1  8  2  0
  1  9  1  0
  6 10  1  0
  3 11  1  0
 12 13  2  0
 13 14  1  0
 14 15  2  0
 15 16  1  0
 16 17  2  0
 12 17  1  0
 15 18  1  0
 13 19  1  0
  9 12  1  0
  4 20  1  0
  5 21  1  0
  7 22  1  0
  9 23  1  0
 11 24  1  0
 14 25  1  0
 16 26  1  0
 17 27  1  0
M  END
>  <From>  (5) 
www.bindingDB.org

>  <BindingDB Reactant_set_id>  (5) 
408369

>  <Ligand InChI>  (5) 
InChI=1S/C13H8Cl2INO2/c14-7-1-3-11(10(15)5-7)17-13(19)9-6-8(16)2-4-12(9)18/h1-6,18H,(H,17,19)

>  <Ligand InChI Key>  (5) 
KICCRVGNGYUTHW-UHFFFAOYSA-N

>  <BindingDB MonomerID>  (5) 
234324

>  <BindingDB Ligand Name>  (5) 
N-(2,4-dichlorophenyl)-2-hydroxy-5-iodobenzamide (26)

>  <Target Name>  (5) 
Epidermal growth factor receptor [645-1186]

>  <Target Source Organism According to Curator or DataSource>  (5) 


>  <Ki (nM)>  (5) 


>  <IC50 (nM)>  (5) 
 9660

>  <Kd (nM)>  (5) 


>  <EC50 (nM)>  (5) 


>  <kon (M-1-s-1)>  (5) 


>  <koff (s-1)>  (5) 


>  <pH>  (5) 
7.4

>  <Temp C>  (5) 
25.00

>  <Curation/DataSource>  (5) 
Curated from the literature by BindingDB

>  <Article DOI>  (5) 
10.3109/14756361003671060

>  <BindingDB Entry DOI>  (5) 
10.7270/Q2XW4HPN

>  <PMID>  (5) 
20583855

>  <PubChem AID>  (5) 
aid1802974

>  <Patent Number>  (5) 


>  <Authors>  (5) 
Zhu, ZW; Shi, L; Ruan, XM; Yang, Y; Li, HQ; Xu, SP; Zhu, HL

>  <Institution>  (5) 
Nanjing University

>  <Link to Ligand in BindingDB>  (5) 
http://www.bindingdb.org/bind/chemsearch/marvin/MolStructure.jsp?monomerid=234324

>  <Link to Ligand-Target Pair in BindingDB>  (5) 
http://www.bindingdb.org/jsp/dbsearch/PrimarySearch_ki.jsp?energyterm=kJ/mole&tag=r21&monomerid=234324&enzyme=Epidermal+growth+factor+receptor+%5B645-1186%5D&column=ki&startPg=0&Increment=50&submit=Search

>  <Ligand HET ID in PDB>  (5) 


>  <PDB ID(s) for Ligand-Target Complex>  (5) 


>  <PubChem CID of Ligand>  (5) 
21240360

>  <PubChem SID of Ligand>  (5) 
340094313

>  <ChEBI ID of Ligand>  (5) 


>  <ChEMBL ID of Ligand>  (5) 


>  <DrugBank ID of Ligand>  (5) 


>  <IUPHAR_GRAC ID of Ligand>  (5) 


>  <KEGG ID of Ligand>  (5) 


>  <ZINC ID of Ligand>  (5) 


>  <Number of Protein Chains in Target (bigger than 1 implies a multichain complex)>  (5) 
1

>  <BindingDB Target Chain Sequence>  (5) 
SIATGMVGALLLLLVVALGIGLFMRRRHIVRKRTLRRLLQERELVEPLTPSGEAPNQALLRILKETEFKKIKVLGSGAFGTVYKGLWIPEGEKVKIPVAIKELREATSPKANKEILDEAYVMASVDNPHVCRLLGICLTSTVQLITQLMPFGCLLDYVREHKDNIGSQYLLNWCVQIAKGMNYLEDRRLVHRDLAARNVLVKTPQHVKITDFGLAKLLGAEEKEYHAEGGKVPIKWMALESILHRIYTHQSDVWSYGVTVWELMTFGSKPYDGIPASEISSILEKGERLPQPPICTIDVYMIMVKCWMIDADSRPKFRELIIEFSKMARDPQRYLVIQGDERMHLPSPTDSNFYRALMDEEDMDDVVDADEYLIPQQGFFSSPSTSRTPLLSSLSATSNNSTVACIDRNGLQSCPIKEDSFLQRYSSDPTGALTEDSIDDTFLPVPEYINQSVPKRPAGSVQNPVYHNQPLNPAPSRDPHYQDPHSTAVGNPEYLNTVQPTCVNSTFDSPAHWAQKGSHQISLDNPDYQQDFFPKEAKPNGI

>  <PDB ID(s) of Target Chain>  (5) 
1M14,1M17,1XKK,1Z9I,2GS2,2GS6,2ITW,2ITX,2ITY,2J5E,2J5F,2J6M,2RF9,2RGP,3BEL,3GOP,3POZ,3VJO,3W2O,3W2P,3W2Q,3W2R,3W2S,3W32,3W33,4G5J,4I23,4JQ7,4JQ8,4JR3,4JRV,4LI5,4RJ4,4RJ5,4RJ6,4RJ7,4RJ8,4TKS,4WKQ,4WRG,4ZAU,5C8K,5C8M,5C8N,5CAL,5CAN,5CAO,5CAP,5CAQ,5CAS,5CAU,5CAV,5EDP,5EDQ,5EDR,5EM5,5EM6,5EM7,5EM8,5GNK,5HCX,5HCY,5HCZ,5HIB,5HIC,5UGB,5Y25,6D8E,6JZ0,6S89,6S8A,6VH4,6VHN,6VHP,7AEI,7AEM,7B85,7OXB,7SI1,7UKV,7ZYM,7ZYN,7ZYP,8A27,8A2A,8HY7

>  <UniProt (SwissProt) Recommended Name of Target Chain>  (5) 
Epidermal growth factor receptor

>  <UniProt (SwissProt) Entry Name of Target Chain>  (5) 
EGFR_HUMAN

>  <UniProt (SwissProt) Primary ID of Target Chain>  (5) 
P00533

>  <UniProt (SwissProt) Secondary ID(s) of Target Chain>  (5) 
O00688 O00732 P06268 Q14225 Q68GS5 Q92795 Q9BZS2 Q9GZX1 Q9H2C9 Q9H3C9 Q9UMD7 Q9UMD8 Q9UMG5

>  <UniProt (SwissProt) Alternative ID(s) of Target Chain>  (5) 


>  <UniProt (TrEMBL) Submitted Name of Target Chain>  (5) 


>  <UniProt (TrEMBL) Entry Name of Target Chain>  (5) 


>  <UniProt (TrEMBL) Primary ID of Target Chain>  (5) 


>  <UniProt (TrEMBL) Secondary ID(s) of Target Chain>  (5) 


>  <UniProt (TrEMBL) Alternative ID(s) of Target Chain>  (5) 


$$$$
Untitled Document-1
     RDKit          3D

 27 28  0  0  0  0  0  0  0  0999 V2000
   -1.4263   -0.5913   -0.1003 C   0  0  0  0  0  0  0  0  0  0  0  0
   -2.8257   -0.1176   -0.1646 C   0  0  0  0  0  0  0  0  0  0  0  0
   -3.2403    1.0550    0.5044 C   0  0  0  0  0  0  0  0  0  0  0  0
   -4.5819    1.4798    0.3985 C   0  0  0  0  0  0  0  0  0  0  0  0
   -5.4967    0.7267   -0.3441 C   0  0  0  0  0  0  0  0  0  0  0  0
   -5.0925   -0.4482   -0.9792 C   0  0  0  0  0  0  0  0  0  0  0  0
   -3.7652   -0.8710   -0.8867 C   0  0  0  0  0  0  0  0  0  0  0  0
   -1.2059   -1.8132    0.1198 O   0  0  0  0  0  0  0  0  0  0  0  0
   -0.3315    0.3230   -0.2916 N   0  0  0  0  0  0  0  0  0  0  0  0
   -2.3228    1.7620    1.2858 O   0  0  0  0  0  0  0  0  0  0  0  0
    1.0530   -0.0629   -0.2699 C   0  0  0  0  0  0  0  0  0  0  0  0
    1.9981    0.8038    0.3002 C   0  0  0  0  0  0  0  0  0  0  0  0
    3.3542    0.4637    0.3131 C   0  0  0  0  0  0  0  0  0  0  0  0
    3.7807   -0.7387   -0.2590 C   0  0  0  0  0  0  0  0  0  0  0  0
    2.8497   -1.5968   -0.8525 C   0  0  0  0  0  0  0  0  0  0  0  0
    1.4926   -1.2595   -0.8657 C   0  0  0  0  0  0  0  0  0  0  0  0
    5.4827   -1.1629   -0.2456 Cl  0  0  0  0  0  0  0  0  0  0  0  0
   -6.3542   -1.4745   -1.9808 Br  0  0  0  0  0  0  0  0  0  0  0  0
   -5.2159    3.0702    1.2606 Br  0  0  0  0  0  0  0  0  0  0  0  0
   -6.5265    1.0516   -0.4217 H   0  0  0  0  0  0  0  0  0  0  0  0
   -3.4625   -1.7797   -1.3931 H   0  0  0  0  0  0  0  0  0  0  0  0
   -0.5423    1.3400   -0.4016 H   0  0  0  0  0  0  0  0  0  0  0  0
   -2.5629    2.6016    1.7963 H   0  0  0  0  0  0  0  0  0  0  0  0
    1.6801    1.7388    0.7444 H   0  0  0  0  0  0  0  0  0  0  0  0
    4.0719    1.1362    0.7656 H   0  0  0  0  0  0  0  0  0  0  0  0
    3.1774   -2.5204   -1.3126 H   0  0  0  0  0  0  0  0  0  0  0  0
    0.7963   -1.9190   -1.3659 H   0  0  0  0  0  0  0  0  0  0  0  0
  1  2  1  0
  2  3  2  0
  3  4  1  0
  4  5  2  0
  5  6  1  0
  6  7  2  0
  2  7  1  0
  1  8  2  0
  1  9  1  0
  3 10  1  0
 11 12  2  0
 12 13  1  0
 13 14  2  0
 14 15  1  0
 15 16  2  0
 11 16  1  0
 14 17  1  0
  9 11  1  0
  6 18  1  0
  4 19  1  0
  5 20  1  0
  7 21  1  0
  9 22  1  0
 10 23  1  0
 12 24  1  0
 13 25  1  0
 15 26  1  0
 16 27  1  0
M  END
>  <From>  (6) 
www.bindingDB.org

>  <BindingDB Reactant_set_id>  (6) 
408373

>  <Ligand InChI>  (6) 
InChI=1S/C13H8Br2ClNO2/c14-7-5-10(12(18)11(15)6-7)13(19)17-9-3-1-8(16)2-4-9/h1-6,18H,(H,17,19)

>  <Ligand InChI Key>  (6) 
YVVILFKWXBZXAA-UHFFFAOYSA-N

>  <BindingDB MonomerID>  (6) 
234328

>  <BindingDB Ligand Name>  (6) 
3,5-Dibromo-N-(4-chlorophenyl)-2-hydroxybenzamide (30)

>  <Target Name>  (6) 
Epidermal growth factor receptor [645-1186]

>  <Target Source Organism According to Curator or DataSource>  (6) 


>  <Ki (nM)>  (6) 


>  <IC50 (nM)>  (6) 
 12190

>  <Kd (nM)>  (6) 


>  <EC50 (nM)>  (6) 


>  <kon (M-1-s-1)>  (6) 


>  <koff (s-1)>  (6) 


>  <pH>  (6) 
7.4

>  <Temp C>  (6) 
25.00

>  <Curation/DataSource>  (6) 
Curated from the literature by BindingDB

>  <Article DOI>  (6) 
10.3109/14756361003671060

>  <BindingDB Entry DOI>  (6) 
10.7270/Q2XW4HPN

>  <PMID>  (6) 
20583855

>  <PubChem AID>  (6) 
aid1802974

>  <Patent Number>  (6) 


>  <Authors>  (6) 
Zhu, ZW; Shi, L; Ruan, XM; Yang, Y; Li, HQ; Xu, SP; Zhu, HL

>  <Institution>  (6) 
Nanjing University

>  <Link to Ligand in BindingDB>  (6) 
http://www.bindingdb.org/bind/chemsearch/marvin/MolStructure.jsp?monomerid=234328

>  <Link to Ligand-Target Pair in BindingDB>  (6) 
http://www.bindingdb.org/jsp/dbsearch/PrimarySearch_ki.jsp?energyterm=kJ/mole&tag=r21&monomerid=234328&enzyme=Epidermal+growth+factor+receptor+%5B645-1186%5D&column=ki&startPg=0&Increment=50&submit=Search

>  <Ligand HET ID in PDB>  (6) 


>  <PDB ID(s) for Ligand-Target Complex>  (6) 


>  <PubChem CID of Ligand>  (6) 
352408

>  <PubChem SID of Ligand>  (6) 
340094317

>  <ChEBI ID of Ligand>  (6) 


>  <ChEMBL ID of Ligand>  (6) 


>  <DrugBank ID of Ligand>  (6) 


>  <IUPHAR_GRAC ID of Ligand>  (6) 


>  <KEGG ID of Ligand>  (6) 


>  <ZINC ID of Ligand>  (6) 


>  <Number of Protein Chains in Target (bigger than 1 implies a multichain complex)>  (6) 
1

>  <BindingDB Target Chain Sequence>  (6) 
SIATGMVGALLLLLVVALGIGLFMRRRHIVRKRTLRRLLQERELVEPLTPSGEAPNQALLRILKETEFKKIKVLGSGAFGTVYKGLWIPEGEKVKIPVAIKELREATSPKANKEILDEAYVMASVDNPHVCRLLGICLTSTVQLITQLMPFGCLLDYVREHKDNIGSQYLLNWCVQIAKGMNYLEDRRLVHRDLAARNVLVKTPQHVKITDFGLAKLLGAEEKEYHAEGGKVPIKWMALESILHRIYTHQSDVWSYGVTVWELMTFGSKPYDGIPASEISSILEKGERLPQPPICTIDVYMIMVKCWMIDADSRPKFRELIIEFSKMARDPQRYLVIQGDERMHLPSPTDSNFYRALMDEEDMDDVVDADEYLIPQQGFFSSPSTSRTPLLSSLSATSNNSTVACIDRNGLQSCPIKEDSFLQRYSSDPTGALTEDSIDDTFLPVPEYINQSVPKRPAGSVQNPVYHNQPLNPAPSRDPHYQDPHSTAVGNPEYLNTVQPTCVNSTFDSPAHWAQKGSHQISLDNPDYQQDFFPKEAKPNGI

>  <PDB ID(s) of Target Chain>  (6) 
1M14,1M17,1XKK,1Z9I,2GS2,2GS6,2ITW,2ITX,2ITY,2J5E,2J5F,2J6M,2RF9,2RGP,3BEL,3GOP,3POZ,3VJO,3W2O,3W2P,3W2Q,3W2R,3W2S,3W32,3W33,4G5J,4I23,4JQ7,4JQ8,4JR3,4JRV,4LI5,4RJ4,4RJ5,4RJ6,4RJ7,4RJ8,4TKS,4WKQ,4WRG,4ZAU,5C8K,5C8M,5C8N,5CAL,5CAN,5CAO,5CAP,5CAQ,5CAS,5CAU,5CAV,5EDP,5EDQ,5EDR,5EM5,5EM6,5EM7,5EM8,5GNK,5HCX,5HCY,5HCZ,5HIB,5HIC,5UGB,5Y25,6D8E,6JZ0,6S89,6S8A,6VH4,6VHN,6VHP,7AEI,7AEM,7B85,7OXB,7SI1,7UKV,7ZYM,7ZYN,7ZYP,8A27,8A2A,8HY7

>  <UniProt (SwissProt) Recommended Name of Target Chain>  (6) 
Epidermal growth factor receptor

>  <UniProt (SwissProt) Entry Name of Target Chain>  (6) 
EGFR_HUMAN

>  <UniProt (SwissProt) Primary ID of Target Chain>  (6) 
P00533

>  <UniProt (SwissProt) Secondary ID(s) of Target Chain>  (6) 
O00688 O00732 P06268 Q14225 Q68GS5 Q92795 Q9BZS2 Q9GZX1 Q9H2C9 Q9H3C9 Q9UMD7 Q9UMD8 Q9UMG5

>  <UniProt (SwissProt) Alternative ID(s) of Target Chain>  (6) 


>  <UniProt (TrEMBL) Submitted Name of Target Chain>  (6) 


>  <UniProt (TrEMBL) Entry Name of Target Chain>  (6) 


>  <UniProt (TrEMBL) Primary ID of Target Chain>  (6) 


>  <UniProt (TrEMBL) Secondary ID(s) of Target Chain>  (6) 


>  <UniProt (TrEMBL) Alternative ID(s) of Target Chain>  (6) 


$$$$
Untitled Document-1
     RDKit          3D

 27 28  0  0  0  0  0  0  0  0999 V2000
   -1.3728   -0.2823   -0.6441 C   0  0  0  0  0  0  0  0  0  0  0  0
   -2.7966    0.0075   -0.3692 C   0  0  0  0  0  0  0  0  0  0  0  0
   -3.2029    1.2179    0.2323 C   0  0  0  0  0  0  0  0  0  0  0  0
   -4.5631    1.4458    0.4895 C   0  0  0  0  0  0  0  0  0  0  0  0
   -5.5187    0.4923    0.1328 C   0  0  0  0  0  0  0  0  0  0  0  0
   -5.1244   -0.6948   -0.4881 C   0  0  0  0  0  0  0  0  0  0  0  0
   -3.7707   -0.9344   -0.7426 C   0  0  0  0  0  0  0  0  0  0  0  0
   -1.0556   -0.7712   -1.7623 O   0  0  0  0  0  0  0  0  0  0  0  0
   -0.3634   -0.0180    0.3471 N   0  0  0  0  0  0  0  0  0  0  0  0
   -6.5711   -2.1279   -1.0376 I   0  0  0  0  0  0  0  0  0  0  0  0
   -2.2664    2.2026    0.5465 O   0  0  0  0  0  0  0  0  0  0  0  0
    1.0352   -0.2956    0.1656 C   0  0  0  0  0  0  0  0  0  0  0  0
    1.9852    0.5915    0.6949 C   0  0  0  0  0  0  0  0  0  0  0  0
    3.3520    0.3330    0.5534 C   0  0  0  0  0  0  0  0  0  0  0  0
    3.7821   -0.8238   -0.1038 C   0  0  0  0  0  0  0  0  0  0  0  0
    2.8430   -1.7268   -0.6118 C   0  0  0  0  0  0  0  0  0  0  0  0
    1.4753   -1.4699   -0.4726 C   0  0  0  0  0  0  0  0  0  0  0  0
    5.4970   -1.1492   -0.2776 Cl  0  0  0  0  0  0  0  0  0  0  0  0
   -4.8819    2.3697    0.9553 H   0  0  0  0  0  0  0  0  0  0  0  0
   -6.5658    0.6801    0.3319 H   0  0  0  0  0  0  0  0  0  0  0  0
   -3.4778   -1.8632   -1.2170 H   0  0  0  0  0  0  0  0  0  0  0  0
   -0.6455    0.4508    1.2367 H   0  0  0  0  0  0  0  0  0  0  0  0
   -2.5401    3.0811    0.9709 H   0  0  0  0  0  0  0  0  0  0  0  0
    1.6641    1.4894    1.2078 H   0  0  0  0  0  0  0  0  0  0  0  0
    4.0747    1.0307    0.9569 H   0  0  0  0  0  0  0  0  0  0  0  0
    3.1711   -2.6326   -1.1056 H   0  0  0  0  0  0  0  0  0  0  0  0
    0.7677   -2.2021   -0.8373 H   0  0  0  0  0  0  0  0  0  0  0  0
  1  2  1  0
  2  3  2  0
  3  4  1  0
  4  5  2  0
  5  6  1  0
  6  7  2  0
  2  7  1  0
  1  8  2  0
  1  9  1  0
  6 10  1  0
  3 11  1  0
 12 13  2  0
 13 14  1  0
 14 15  2  0
 15 16  1  0
 16 17  2  0
 12 17  1  0
 15 18  1  0
  9 12  1  0
  4 19  1  0
  5 20  1  0
  7 21  1  0
  9 22  1  0
 11 23  1  0
 13 24  1  0
 14 25  1  0
 16 26  1  0
 17 27  1  0
M  END
>  <From>  (7) 
www.bindingDB.org

>  <BindingDB Reactant_set_id>  (7) 
408367

>  <Ligand InChI>  (7) 
InChI=1S/C13H9ClINO2/c14-8-1-4-10(5-2-8)16-13(18)11-7-9(15)3-6-12(11)17/h1-7,17H,(H,16,18)

>  <Ligand InChI Key>  (7) 
HXDYOSSLXZJTCX-UHFFFAOYSA-N

>  <BindingDB MonomerID>  (7) 
234322

>  <BindingDB Ligand Name>  (7) 
N-(4-chlorophenyl)-2-hydroxy-5-iodobenzamide (24)

>  <Target Name>  (7) 
Epidermal growth factor receptor [645-1186]

>  <Target Source Organism According to Curator or DataSource>  (7) 


>  <Ki (nM)>  (7) 


>  <IC50 (nM)>  (7) 
 13040

>  <Kd (nM)>  (7) 


>  <EC50 (nM)>  (7) 


>  <kon (M-1-s-1)>  (7) 


>  <koff (s-1)>  (7) 


>  <pH>  (7) 
7.4

>  <Temp C>  (7) 
25.00

>  <Curation/DataSource>  (7) 
Curated from the literature by BindingDB

>  <Article DOI>  (7) 
10.3109/14756361003671060

>  <BindingDB Entry DOI>  (7) 
10.7270/Q2XW4HPN

>  <PMID>  (7) 
20583855

>  <PubChem AID>  (7) 
aid1802974

>  <Patent Number>  (7) 


>  <Authors>  (7) 
Zhu, ZW; Shi, L; Ruan, XM; Yang, Y; Li, HQ; Xu, SP; Zhu, HL

>  <Institution>  (7) 
Nanjing University

>  <Link to Ligand in BindingDB>  (7) 
http://www.bindingdb.org/bind/chemsearch/marvin/MolStructure.jsp?monomerid=234322

>  <Link to Ligand-Target Pair in BindingDB>  (7) 
http://www.bindingdb.org/jsp/dbsearch/PrimarySearch_ki.jsp?energyterm=kJ/mole&tag=r21&monomerid=234322&enzyme=Epidermal+growth+factor+receptor+%5B645-1186%5D&column=ki&startPg=0&Increment=50&submit=Search

>  <Ligand HET ID in PDB>  (7) 


>  <PDB ID(s) for Ligand-Target Complex>  (7) 


>  <PubChem CID of Ligand>  (7) 
10248786

>  <PubChem SID of Ligand>  (7) 
340094311

>  <ChEBI ID of Ligand>  (7) 


>  <ChEMBL ID of Ligand>  (7) 


>  <DrugBank ID of Ligand>  (7) 


>  <IUPHAR_GRAC ID of Ligand>  (7) 


>  <KEGG ID of Ligand>  (7) 


>  <ZINC ID of Ligand>  (7) 


>  <Number of Protein Chains in Target (bigger than 1 implies a multichain complex)>  (7) 
1

>  <BindingDB Target Chain Sequence>  (7) 
SIATGMVGALLLLLVVALGIGLFMRRRHIVRKRTLRRLLQERELVEPLTPSGEAPNQALLRILKETEFKKIKVLGSGAFGTVYKGLWIPEGEKVKIPVAIKELREATSPKANKEILDEAYVMASVDNPHVCRLLGICLTSTVQLITQLMPFGCLLDYVREHKDNIGSQYLLNWCVQIAKGMNYLEDRRLVHRDLAARNVLVKTPQHVKITDFGLAKLLGAEEKEYHAEGGKVPIKWMALESILHRIYTHQSDVWSYGVTVWELMTFGSKPYDGIPASEISSILEKGERLPQPPICTIDVYMIMVKCWMIDADSRPKFRELIIEFSKMARDPQRYLVIQGDERMHLPSPTDSNFYRALMDEEDMDDVVDADEYLIPQQGFFSSPSTSRTPLLSSLSATSNNSTVACIDRNGLQSCPIKEDSFLQRYSSDPTGALTEDSIDDTFLPVPEYINQSVPKRPAGSVQNPVYHNQPLNPAPSRDPHYQDPHSTAVGNPEYLNTVQPTCVNSTFDSPAHWAQKGSHQISLDNPDYQQDFFPKEAKPNGI

>  <PDB ID(s) of Target Chain>  (7) 
1M14,1M17,1XKK,1Z9I,2GS2,2GS6,2ITW,2ITX,2ITY,2J5E,2J5F,2J6M,2RF9,2RGP,3BEL,3GOP,3POZ,3VJO,3W2O,3W2P,3W2Q,3W2R,3W2S,3W32,3W33,4G5J,4I23,4JQ7,4JQ8,4JR3,4JRV,4LI5,4RJ4,4RJ5,4RJ6,4RJ7,4RJ8,4TKS,4WKQ,4WRG,4ZAU,5C8K,5C8M,5C8N,5CAL,5CAN,5CAO,5CAP,5CAQ,5CAS,5CAU,5CAV,5EDP,5EDQ,5EDR,5EM5,5EM6,5EM7,5EM8,5GNK,5HCX,5HCY,5HCZ,5HIB,5HIC,5UGB,5Y25,6D8E,6JZ0,6S89,6S8A,6VH4,6VHN,6VHP,7AEI,7AEM,7B85,7OXB,7SI1,7UKV,7ZYM,7ZYN,7ZYP,8A27,8A2A,8HY7

>  <UniProt (SwissProt) Recommended Name of Target Chain>  (7) 
Epidermal growth factor receptor

>  <UniProt (SwissProt) Entry Name of Target Chain>  (7) 
EGFR_HUMAN

>  <UniProt (SwissProt) Primary ID of Target Chain>  (7) 
P00533

>  <UniProt (SwissProt) Secondary ID(s) of Target Chain>  (7) 
O00688 O00732 P06268 Q14225 Q68GS5 Q92795 Q9BZS2 Q9GZX1 Q9H2C9 Q9H3C9 Q9UMD7 Q9UMD8 Q9UMG5

>  <UniProt (SwissProt) Alternative ID(s) of Target Chain>  (7) 


>  <UniProt (TrEMBL) Submitted Name of Target Chain>  (7) 


>  <UniProt (TrEMBL) Entry Name of Target Chain>  (7) 


>  <UniProt (TrEMBL) Primary ID of Target Chain>  (7) 


>  <UniProt (TrEMBL) Secondary ID(s) of Target Chain>  (7) 


>  <UniProt (TrEMBL) Alternative ID(s) of Target Chain>  (7) 


$$$$
Untitled Document-1
     RDKit          3D

 27 28  0  0  0  0  0  0  0  0999 V2000
   -1.4302   -0.6004    0.0822 C   0  0  0  0  0  0  0  0  0  0  0  0
   -2.8303   -0.1352   -0.0179 C   0  0  0  0  0  0  0  0  0  0  0  0
   -3.2328    1.1166    0.4946 C   0  0  0  0  0  0  0  0  0  0  0  0
   -4.5684    1.5258    0.3647 C   0  0  0  0  0  0  0  0  0  0  0  0
   -5.5060    0.6920   -0.2479 C   0  0  0  0  0  0  0  0  0  0  0  0
   -5.1187   -0.5595   -0.7315 C   0  0  0  0  0  0  0  0  0  0  0  0
   -3.7887   -0.9737   -0.6130 C   0  0  0  0  0  0  0  0  0  0  0  0
   -1.2073   -1.7886    0.4409 O   0  0  0  0  0  0  0  0  0  0  0  0
   -0.3374    0.2827   -0.2294 N   0  0  0  0  0  0  0  0  0  0  0  0
   -6.5397   -1.8225   -1.6449 I   0  0  0  0  0  0  0  0  0  0  0  0
   -2.3202    1.9384    1.1559 O   0  0  0  0  0  0  0  0  0  0  0  0
    1.0469   -0.1015   -0.1812 C   0  0  0  0  0  0  0  0  0  0  0  0
    1.4773   -1.3605   -0.6392 C   0  0  0  0  0  0  0  0  0  0  0  0
    2.8342   -1.6973   -0.6048 C   0  0  0  0  0  0  0  0  0  0  0  0
    3.7738   -0.7782   -0.1280 C   0  0  0  0  0  0  0  0  0  0  0  0
    3.3563    0.4837    0.3055 C   0  0  0  0  0  0  0  0  0  0  0  0
    2.0005    0.8235    0.2712 C   0  0  0  0  0  0  0  0  0  0  0  0
    5.6265   -1.2398   -0.0845 Br  0  0  0  0  0  0  0  0  0  0  0  0
   -4.8835    2.4869    0.7508 H   0  0  0  0  0  0  0  0  0  0  0  0
   -6.5348    1.0156   -0.3391 H   0  0  0  0  0  0  0  0  0  0  0  0
   -3.4999   -1.9433   -1.0003 H   0  0  0  0  0  0  0  0  0  0  0  0
   -0.5483    1.2800   -0.4564 H   0  0  0  0  0  0  0  0  0  0  0  0
   -2.5926    2.8366    1.5379 H   0  0  0  0  0  0  0  0  0  0  0  0
    0.7738   -2.0721   -1.0497 H   0  0  0  0  0  0  0  0  0  0  0  0
    3.1553   -2.6687   -0.9582 H   0  0  0  0  0  0  0  0  0  0  0  0
    4.0810    1.2021    0.6667 H   0  0  0  0  0  0  0  0  0  0  0  0
    1.6894    1.8047    0.6075 H   0  0  0  0  0  0  0  0  0  0  0  0
  1  2  1  0
  2  3  2  0
  3  4  1  0
  4  5  2  0
  5  6  1  0
  6  7  2  0
  2  7  1  0
  1  8  2  0
  1  9  1  0
  6 10  1  0
  3 11  1  0
 12 13  2  0
 13 14  1  0
 14 15  2  0
 15 16  1  0
 16 17  2  0
 12 17  1  0
 15 18  1  0
  9 12  1  0
  4 19  1  0
  5 20  1  0
  7 21  1  0
  9 22  1  0
 11 23  1  0
 13 24  1  0
 14 25  1  0
 16 26  1  0
 17 27  1  0
M  END
>  <From>  (8) 
www.bindingDB.org

>  <BindingDB Reactant_set_id>  (8) 
408368

>  <Ligand InChI>  (8) 
InChI=1S/C13H9BrINO2/c14-8-1-4-10(5-2-8)16-13(18)11-7-9(15)3-6-12(11)17/h1-7,17H,(H,16,18)

>  <Ligand InChI Key>  (8) 
ODJWEOWHYPZENX-UHFFFAOYSA-N

>  <BindingDB MonomerID>  (8) 
234323

>  <BindingDB Ligand Name>  (8) 
N-(4-bromophenyl)-2-hydroxy-5-iodobenzamide (25)

>  <Target Name>  (8) 
Epidermal growth factor receptor [645-1186]

>  <Target Source Organism According to Curator or DataSource>  (8) 


>  <Ki (nM)>  (8) 


>  <IC50 (nM)>  (8) 
 13700

>  <Kd (nM)>  (8) 


>  <EC50 (nM)>  (8) 


>  <kon (M-1-s-1)>  (8) 


>  <koff (s-1)>  (8) 


>  <pH>  (8) 
7.4

>  <Temp C>  (8) 
25.00

>  <Curation/DataSource>  (8) 
Curated from the literature by BindingDB

>  <Article DOI>  (8) 
10.3109/14756361003671060

>  <BindingDB Entry DOI>  (8) 
10.7270/Q2XW4HPN

>  <PMID>  (8) 
20583855

>  <PubChem AID>  (8) 
aid1802974

>  <Patent Number>  (8) 


>  <Authors>  (8) 
Zhu, ZW; Shi, L; Ruan, XM; Yang, Y; Li, HQ; Xu, SP; Zhu, HL

>  <Institution>  (8) 
Nanjing University

>  <Link to Ligand in BindingDB>  (8) 
http://www.bindingdb.org/bind/chemsearch/marvin/MolStructure.jsp?monomerid=234323

>  <Link to Ligand-Target Pair in BindingDB>  (8) 
http://www.bindingdb.org/jsp/dbsearch/PrimarySearch_ki.jsp?energyterm=kJ/mole&tag=r21&monomerid=234323&enzyme=Epidermal+growth+factor+receptor+%5B645-1186%5D&column=ki&startPg=0&Increment=50&submit=Search

>  <Ligand HET ID in PDB>  (8) 


>  <PDB ID(s) for Ligand-Target Complex>  (8) 


>  <PubChem CID of Ligand>  (8) 
11998374

>  <PubChem SID of Ligand>  (8) 
340094312

>  <ChEBI ID of Ligand>  (8) 


>  <ChEMBL ID of Ligand>  (8) 


>  <DrugBank ID of Ligand>  (8) 


>  <IUPHAR_GRAC ID of Ligand>  (8) 


>  <KEGG ID of Ligand>  (8) 


>  <ZINC ID of Ligand>  (8) 


>  <Number of Protein Chains in Target (bigger than 1 implies a multichain complex)>  (8) 
1

>  <BindingDB Target Chain Sequence>  (8) 
SIATGMVGALLLLLVVALGIGLFMRRRHIVRKRTLRRLLQERELVEPLTPSGEAPNQALLRILKETEFKKIKVLGSGAFGTVYKGLWIPEGEKVKIPVAIKELREATSPKANKEILDEAYVMASVDNPHVCRLLGICLTSTVQLITQLMPFGCLLDYVREHKDNIGSQYLLNWCVQIAKGMNYLEDRRLVHRDLAARNVLVKTPQHVKITDFGLAKLLGAEEKEYHAEGGKVPIKWMALESILHRIYTHQSDVWSYGVTVWELMTFGSKPYDGIPASEISSILEKGERLPQPPICTIDVYMIMVKCWMIDADSRPKFRELIIEFSKMARDPQRYLVIQGDERMHLPSPTDSNFYRALMDEEDMDDVVDADEYLIPQQGFFSSPSTSRTPLLSSLSATSNNSTVACIDRNGLQSCPIKEDSFLQRYSSDPTGALTEDSIDDTFLPVPEYINQSVPKRPAGSVQNPVYHNQPLNPAPSRDPHYQDPHSTAVGNPEYLNTVQPTCVNSTFDSPAHWAQKGSHQISLDNPDYQQDFFPKEAKPNGI

>  <PDB ID(s) of Target Chain>  (8) 
1M14,1M17,1XKK,1Z9I,2GS2,2GS6,2ITW,2ITX,2ITY,2J5E,2J5F,2J6M,2RF9,2RGP,3BEL,3GOP,3POZ,3VJO,3W2O,3W2P,3W2Q,3W2R,3W2S,3W32,3W33,4G5J,4I23,4JQ7,4JQ8,4JR3,4JRV,4LI5,4RJ4,4RJ5,4RJ6,4RJ7,4RJ8,4TKS,4WKQ,4WRG,4ZAU,5C8K,5C8M,5C8N,5CAL,5CAN,5CAO,5CAP,5CAQ,5CAS,5CAU,5CAV,5EDP,5EDQ,5EDR,5EM5,5EM6,5EM7,5EM8,5GNK,5HCX,5HCY,5HCZ,5HIB,5HIC,5UGB,5Y25,6D8E,6JZ0,6S89,6S8A,6VH4,6VHN,6VHP,7AEI,7AEM,7B85,7OXB,7SI1,7UKV,7ZYM,7ZYN,7ZYP,8A27,8A2A,8HY7

>  <UniProt (SwissProt) Recommended Name of Target Chain>  (8) 
Epidermal growth factor receptor

>  <UniProt (SwissProt) Entry Name of Target Chain>  (8) 
EGFR_HUMAN

>  <UniProt (SwissProt) Primary ID of Target Chain>  (8) 
P00533

>  <UniProt (SwissProt) Secondary ID(s) of Target Chain>  (8) 
O00688 O00732 P06268 Q14225 Q68GS5 Q92795 Q9BZS2 Q9GZX1 Q9H2C9 Q9H3C9 Q9UMD7 Q9UMD8 Q9UMG5

>  <UniProt (SwissProt) Alternative ID(s) of Target Chain>  (8) 


>  <UniProt (TrEMBL) Submitted Name of Target Chain>  (8) 


>  <UniProt (TrEMBL) Entry Name of Target Chain>  (8) 


>  <UniProt (TrEMBL) Primary ID of Target Chain>  (8) 


>  <UniProt (TrEMBL) Secondary ID(s) of Target Chain>  (8) 


>  <UniProt (TrEMBL) Alternative ID(s) of Target Chain>  (8) 


$$$$
Untitled Document-1
     RDKit          3D

 27 28  0  0  0  0  0  0  0  0999 V2000
   -1.4027   -0.5030   -0.3639 C   0  0  0  0  0  0  0  0  0  0  0  0
   -2.8156   -0.0660   -0.2711 C   0  0  0  0  0  0  0  0  0  0  0  0
   -3.2123    0.9769    0.5956 C   0  0  0  0  0  0  0  0  0  0  0  0
   -4.5581    1.3714    0.6429 C   0  0  0  0  0  0  0  0  0  0  0  0
   -5.5114    0.7263   -0.1471 C   0  0  0  0  0  0  0  0  0  0  0  0
   -5.1294   -0.3197   -0.9875 C   0  0  0  0  0  0  0  0  0  0  0  0
   -3.7914   -0.7175   -1.0478 C   0  0  0  0  0  0  0  0  0  0  0  0
   -1.1448   -1.7118   -0.6171 O   0  0  0  0  0  0  0  0  0  0  0  0
   -0.3297    0.4440   -0.2360 N   0  0  0  0  0  0  0  0  0  0  0  0
   -2.2822    1.6028    1.4257 O   0  0  0  0  0  0  0  0  0  0  0  0
    1.0310    0.0649    0.0396 C   0  0  0  0  0  0  0  0  0  0  0  0
    2.1034    0.7892   -0.5229 C   0  0  0  0  0  0  0  0  0  0  0  0
    3.4239    0.4290   -0.2267 C   0  0  0  0  0  0  0  0  0  0  0  0
    3.6874   -0.6390    0.6335 C   0  0  0  0  0  0  0  0  0  0  0  0
    2.6324   -1.3512    1.2058 C   0  0  0  0  0  0  0  0  0  0  0  0
    1.3114   -1.0005    0.9159 C   0  0  0  0  0  0  0  0  0  0  0  0
    1.8270    2.1283   -1.6300 Cl  0  0  0  0  0  0  0  0  0  0  0  0
   -4.8680    2.1726    1.3018 H   0  0  0  0  0  0  0  0  0  0  0  0
   -6.5483    1.0333   -0.1028 H   0  0  0  0  0  0  0  0  0  0  0  0
   -5.8705   -0.8219   -1.5958 H   0  0  0  0  0  0  0  0  0  0  0  0
   -3.5157   -1.5254   -1.7145 H   0  0  0  0  0  0  0  0  0  0  0  0
   -0.5398    1.4477   -0.4343 H   0  0  0  0  0  0  0  0  0  0  0  0
   -2.5498    2.3474    2.0587 H   0  0  0  0  0  0  0  0  0  0  0  0
    4.2486    0.9769   -0.6648 H   0  0  0  0  0  0  0  0  0  0  0  0
    4.7100   -0.9119    0.8599 H   0  0  0  0  0  0  0  0  0  0  0  0
    2.8382   -2.1718    1.8809 H   0  0  0  0  0  0  0  0  0  0  0  0
    0.5087   -1.5476    1.3930 H   0  0  0  0  0  0  0  0  0  0  0  0
  1  2  1  0
  2  3  2  0
  3  4  1  0
  4  5  2  0
  5  6  1  0
  6  7  2  0
  2  7  1  0
  1  8  2  0
  1  9  1  0
  3 10  1  0
 11 12  2  0
 12 13  1  0
 13 14  2  0
 14 15  1  0
 15 16  2  0
 11 16  1  0
 12 17  1  0
  9 11  1  0
  4 18  1  0
  5 19  1  0
  6 20  1  0
  7 21  1  0
  9 22  1  0
 10 23  1  0
 13 24  1  0
 14 25  1  0
 15 26  1  0
 16 27  1  0
M  END
>  <From>  (9) 
www.bindingDB.org

>  <BindingDB Reactant_set_id>  (9) 
408346

>  <Ligand InChI>  (9) 
InChI=1S/C13H10ClNO2/c14-10-6-2-3-7-11(10)15-13(17)9-5-1-4-8-12(9)16/h1-8,16H,(H,15,17)

>  <Ligand InChI Key>  (9) 
KFIQAGIXMXTUIM-UHFFFAOYSA-N

>  <BindingDB MonomerID>  (9) 
234302

>  <BindingDB Ligand Name>  (9) 
N-(2-chlorophenyl)-2-hydroxybenzamide (3)

>  <Target Name>  (9) 
Epidermal growth factor receptor [645-1186]

>  <Target Source Organism According to Curator or DataSource>  (9) 


>  <Ki (nM)>  (9) 


>  <IC50 (nM)>  (9) 
 14180

>  <Kd (nM)>  (9) 


>  <EC50 (nM)>  (9) 


>  <kon (M-1-s-1)>  (9) 


>  <koff (s-1)>  (9) 


>  <pH>  (9) 
7.4

>  <Temp C>  (9) 
25.00

>  <Curation/DataSource>  (9) 
Curated from the literature by BindingDB

>  <Article DOI>  (9) 
10.3109/14756361003671060

>  <BindingDB Entry DOI>  (9) 
10.7270/Q2XW4HPN

>  <PMID>  (9) 
20583855

>  <PubChem AID>  (9) 
aid1802974

>  <Patent Number>  (9) 


>  <Authors>  (9) 
Zhu, ZW; Shi, L; Ruan, XM; Yang, Y; Li, HQ; Xu, SP; Zhu, HL

>  <Institution>  (9) 
Nanjing University

>  <Link to Ligand in BindingDB>  (9) 
http://www.bindingdb.org/bind/chemsearch/marvin/MolStructure.jsp?monomerid=234302

>  <Link to Ligand-Target Pair in BindingDB>  (9) 
http://www.bindingdb.org/jsp/dbsearch/PrimarySearch_ki.jsp?energyterm=kJ/mole&tag=r21&monomerid=234302&enzyme=Epidermal+growth+factor+receptor+%5B645-1186%5D&column=ki&startPg=0&Increment=50&submit=Search

>  <Ligand HET ID in PDB>  (9) 


>  <PDB ID(s) for Ligand-Target Complex>  (9) 


>  <PubChem CID of Ligand>  (9) 
247956

>  <PubChem SID of Ligand>  (9) 
340094291

>  <ChEBI ID of Ligand>  (9) 


>  <ChEMBL ID of Ligand>  (9) 


>  <DrugBank ID of Ligand>  (9) 


>  <IUPHAR_GRAC ID of Ligand>  (9) 


>  <KEGG ID of Ligand>  (9) 


>  <ZINC ID of Ligand>  (9) 


>  <Number of Protein Chains in Target (bigger than 1 implies a multichain complex)>  (9) 
1

>  <BindingDB Target Chain Sequence>  (9) 
SIATGMVGALLLLLVVALGIGLFMRRRHIVRKRTLRRLLQERELVEPLTPSGEAPNQALLRILKETEFKKIKVLGSGAFGTVYKGLWIPEGEKVKIPVAIKELREATSPKANKEILDEAYVMASVDNPHVCRLLGICLTSTVQLITQLMPFGCLLDYVREHKDNIGSQYLLNWCVQIAKGMNYLEDRRLVHRDLAARNVLVKTPQHVKITDFGLAKLLGAEEKEYHAEGGKVPIKWMALESILHRIYTHQSDVWSYGVTVWELMTFGSKPYDGIPASEISSILEKGERLPQPPICTIDVYMIMVKCWMIDADSRPKFRELIIEFSKMARDPQRYLVIQGDERMHLPSPTDSNFYRALMDEEDMDDVVDADEYLIPQQGFFSSPSTSRTPLLSSLSATSNNSTVACIDRNGLQSCPIKEDSFLQRYSSDPTGALTEDSIDDTFLPVPEYINQSVPKRPAGSVQNPVYHNQPLNPAPSRDPHYQDPHSTAVGNPEYLNTVQPTCVNSTFDSPAHWAQKGSHQISLDNPDYQQDFFPKEAKPNGI

>  <PDB ID(s) of Target Chain>  (9) 
1M14,1M17,1XKK,1Z9I,2GS2,2GS6,2ITW,2ITX,2ITY,2J5E,2J5F,2J6M,2RF9,2RGP,3BEL,3GOP,3POZ,3VJO,3W2O,3W2P,3W2Q,3W2R,3W2S,3W32,3W33,4G5J,4I23,4JQ7,4JQ8,4JR3,4JRV,4LI5,4RJ4,4RJ5,4RJ6,4RJ7,4RJ8,4TKS,4WKQ,4WRG,4ZAU,5C8K,5C8M,5C8N,5CAL,5CAN,5CAO,5CAP,5CAQ,5CAS,5CAU,5CAV,5EDP,5EDQ,5EDR,5EM5,5EM6,5EM7,5EM8,5GNK,5HCX,5HCY,5HCZ,5HIB,5HIC,5UGB,5Y25,6D8E,6JZ0,6S89,6S8A,6VH4,6VHN,6VHP,7AEI,7AEM,7B85,7OXB,7SI1,7UKV,7ZYM,7ZYN,7ZYP,8A27,8A2A,8HY7

>  <UniProt (SwissProt) Recommended Name of Target Chain>  (9) 
Epidermal growth factor receptor

>  <UniProt (SwissProt) Entry Name of Target Chain>  (9) 
EGFR_HUMAN

>  <UniProt (SwissProt) Primary ID of Target Chain>  (9) 
P00533

>  <UniProt (SwissProt) Secondary ID(s) of Target Chain>  (9) 
O00688 O00732 P06268 Q14225 Q68GS5 Q92795 Q9BZS2 Q9GZX1 Q9H2C9 Q9H3C9 Q9UMD7 Q9UMD8 Q9UMG5

>  <UniProt (SwissProt) Alternative ID(s) of Target Chain>  (9) 


>  <UniProt (TrEMBL) Submitted Name of Target Chain>  (9) 


>  <UniProt (TrEMBL) Entry Name of Target Chain>  (9) 


>  <UniProt (TrEMBL) Primary ID of Target Chain>  (9) 


>  <UniProt (TrEMBL) Secondary ID(s) of Target Chain>  (9) 


>  <UniProt (TrEMBL) Alternative ID(s) of Target Chain>  (9) 


$$$$
Untitled Document-1
     RDKit          3D

 27 28  0  0  0  0  0  0  0  0999 V2000
   -1.4054   -0.5980   -0.0873 C   0  0  0  0  0  0  0  0  0  0  0  0
   -2.8067   -0.1278   -0.1406 C   0  0  0  0  0  0  0  0  0  0  0  0
   -3.2070    1.0774    0.4761 C   0  0  0  0  0  0  0  0  0  0  0  0
   -4.5438    1.4950    0.3881 C   0  0  0  0  0  0  0  0  0  0  0  0
   -5.4843    0.7136   -0.2864 C   0  0  0  0  0  0  0  0  0  0  0  0
   -5.0986   -0.4922   -0.8736 C   0  0  0  0  0  0  0  0  0  0  0  0
   -3.7688   -0.9144   -0.7980 C   0  0  0  0  0  0  0  0  0  0  0  0
   -1.1782   -1.8185    0.1354 O   0  0  0  0  0  0  0  0  0  0  0  0
   -0.3142    0.3159   -0.2950 N   0  0  0  0  0  0  0  0  0  0  0  0
   -2.2910    1.8428    1.1977 O   0  0  0  0  0  0  0  0  0  0  0  0
    1.0681   -0.0717   -0.2290 C   0  0  0  0  0  0  0  0  0  0  0  0
    2.0010    0.7416    0.4452 C   0  0  0  0  0  0  0  0  0  0  0  0
    3.3519    0.3752    0.4815 C   0  0  0  0  0  0  0  0  0  0  0  0
    3.7838   -0.7880   -0.1596 C   0  0  0  0  0  0  0  0  0  0  0  0
    2.8683   -1.5891   -0.8445 C   0  0  0  0  0  0  0  0  0  0  0  0
    1.5179   -1.2321   -0.8850 C   0  0  0  0  0  0  0  0  0  0  0  0
    1.4587    2.3348    1.3621 Br  0  0  0  0  0  0  0  0  0  0  0  0
   -4.8572    2.4205    0.8541 H   0  0  0  0  0  0  0  0  0  0  0  0
   -6.5148    1.0393   -0.3469 H   0  0  0  0  0  0  0  0  0  0  0  0
   -5.8302   -1.0997   -1.3905 H   0  0  0  0  0  0  0  0  0  0  0  0
   -3.4864   -1.8489   -1.2676 H   0  0  0  0  0  0  0  0  0  0  0  0
   -0.5282    1.3203   -0.4829 H   0  0  0  0  0  0  0  0  0  0  0  0
   -2.5612    2.7065    1.6536 H   0  0  0  0  0  0  0  0  0  0  0  0
    4.0685    0.9924    1.0082 H   0  0  0  0  0  0  0  0  0  0  0  0
    4.8295   -1.0657   -0.1300 H   0  0  0  0  0  0  0  0  0  0  0  0
    3.2066   -2.4834   -1.3517 H   0  0  0  0  0  0  0  0  0  0  0  0
    0.8296   -1.8482   -1.4487 H   0  0  0  0  0  0  0  0  0  0  0  0
  1  2  1  0
  2  3  2  0
  3  4  1  0
  4  5  2  0
  5  6  1  0
  6  7  2  0
  2  7  1  0
  1  8  2  0
  1  9  1  0
  3 10  1  0
 11 12  2  0
 12 13  1  0
 13 14  2  0
 14 15  1  0
 15 16  2  0
 11 16  1  0
 12 17  1  0
  9 11  1  0
  4 18  1  0
  5 19  1  0
  6 20  1  0
  7 21  1  0
  9 22  1  0
 10 23  1  0
 13 24  1  0
 14 25  1  0
 15 26  1  0
 16 27  1  0
M  END
>  <From>  (10) 
www.bindingDB.org

>  <BindingDB Reactant_set_id>  (10) 
408347

>  <Ligand InChI>  (10) 
InChI=1S/C13H10BrNO2/c14-10-6-2-3-7-11(10)15-13(17)9-5-1-4-8-12(9)16/h1-8,16H,(H,15,17)

>  <Ligand InChI Key>  (10) 
UUVHVGDXYGUCJM-UHFFFAOYSA-N

>  <BindingDB MonomerID>  (10) 
234303

>  <BindingDB Ligand Name>  (10) 
N-(2-bromophenyl)-2-hydroxybenzamide (4)

>  <Target Name>  (10) 
Epidermal growth factor receptor [645-1186]

>  <Target Source Organism According to Curator or DataSource>  (10) 


>  <Ki (nM)>  (10) 


>  <IC50 (nM)>  (10) 
 21920

>  <Kd (nM)>  (10) 


>  <EC50 (nM)>  (10) 


>  <kon (M-1-s-1)>  (10) 


>  <koff (s-1)>  (10) 


>  <pH>  (10) 
7.4

>  <Temp C>  (10) 
25.00

>  <Curation/DataSource>  (10) 
Curated from the literature by BindingDB

>  <Article DOI>  (10) 
10.3109/14756361003671060

>  <BindingDB Entry DOI>  (10) 
10.7270/Q2XW4HPN

>  <PMID>  (10) 
20583855

>  <PubChem AID>  (10) 
aid1802974

>  <Patent Number>  (10) 


>  <Authors>  (10) 
Zhu, ZW; Shi, L; Ruan, XM; Yang, Y; Li, HQ; Xu, SP; Zhu, HL

>  <Institution>  (10) 
Nanjing University

>  <Link to Ligand in BindingDB>  (10) 
http://www.bindingdb.org/bind/chemsearch/marvin/MolStructure.jsp?monomerid=234303

>  <Link to Ligand-Target Pair in BindingDB>  (10) 
http://www.bindingdb.org/jsp/dbsearch/PrimarySearch_ki.jsp?energyterm=kJ/mole&tag=r21&monomerid=234303&enzyme=Epidermal+growth+factor+receptor+%5B645-1186%5D&column=ki&startPg=0&Increment=50&submit=Search

>  <Ligand HET ID in PDB>  (10) 


>  <PDB ID(s) for Ligand-Target Complex>  (10) 


>  <PubChem CID of Ligand>  (10) 
2412582

>  <PubChem SID of Ligand>  (10) 
340094292

>  <ChEBI ID of Ligand>  (10) 


>  <ChEMBL ID of Ligand>  (10) 


>  <DrugBank ID of Ligand>  (10) 


>  <IUPHAR_GRAC ID of Ligand>  (10) 


>  <KEGG ID of Ligand>  (10) 


>  <ZINC ID of Ligand>  (10) 


>  <Number of Protein Chains in Target (bigger than 1 implies a multichain complex)>  (10) 
1

>  <BindingDB Target Chain Sequence>  (10) 
SIATGMVGALLLLLVVALGIGLFMRRRHIVRKRTLRRLLQERELVEPLTPSGEAPNQALLRILKETEFKKIKVLGSGAFGTVYKGLWIPEGEKVKIPVAIKELREATSPKANKEILDEAYVMASVDNPHVCRLLGICLTSTVQLITQLMPFGCLLDYVREHKDNIGSQYLLNWCVQIAKGMNYLEDRRLVHRDLAARNVLVKTPQHVKITDFGLAKLLGAEEKEYHAEGGKVPIKWMALESILHRIYTHQSDVWSYGVTVWELMTFGSKPYDGIPASEISSILEKGERLPQPPICTIDVYMIMVKCWMIDADSRPKFRELIIEFSKMARDPQRYLVIQGDERMHLPSPTDSNFYRALMDEEDMDDVVDADEYLIPQQGFFSSPSTSRTPLLSSLSATSNNSTVACIDRNGLQSCPIKEDSFLQRYSSDPTGALTEDSIDDTFLPVPEYINQSVPKRPAGSVQNPVYHNQPLNPAPSRDPHYQDPHSTAVGNPEYLNTVQPTCVNSTFDSPAHWAQKGSHQISLDNPDYQQDFFPKEAKPNGI

>  <PDB ID(s) of Target Chain>  (10) 
1M14,1M17,1XKK,1Z9I,2GS2,2GS6,2ITW,2ITX,2ITY,2J5E,2J5F,2J6M,2RF9,2RGP,3BEL,3GOP,3POZ,3VJO,3W2O,3W2P,3W2Q,3W2R,3W2S,3W32,3W33,4G5J,4I23,4JQ7,4JQ8,4JR3,4JRV,4LI5,4RJ4,4RJ5,4RJ6,4RJ7,4RJ8,4TKS,4WKQ,4WRG,4ZAU,5C8K,5C8M,5C8N,5CAL,5CAN,5CAO,5CAP,5CAQ,5CAS,5CAU,5CAV,5EDP,5EDQ,5EDR,5EM5,5EM6,5EM7,5EM8,5GNK,5HCX,5HCY,5HCZ,5HIB,5HIC,5UGB,5Y25,6D8E,6JZ0,6S89,6S8A,6VH4,6VHN,6VHP,7AEI,7AEM,7B85,7OXB,7SI1,7UKV,7ZYM,7ZYN,7ZYP,8A27,8A2A,8HY7

>  <UniProt (SwissProt) Recommended Name of Target Chain>  (10) 
Epidermal growth factor receptor

>  <UniProt (SwissProt) Entry Name of Target Chain>  (10) 
EGFR_HUMAN

>  <UniProt (SwissProt) Primary ID of Target Chain>  (10) 
P00533

>  <UniProt (SwissProt) Secondary ID(s) of Target Chain>  (10) 
O00688 O00732 P06268 Q14225 Q68GS5 Q92795 Q9BZS2 Q9GZX1 Q9H2C9 Q9H3C9 Q9UMD7 Q9UMD8 Q9UMG5

>  <UniProt (SwissProt) Alternative ID(s) of Target Chain>  (10) 


>  <UniProt (TrEMBL) Submitted Name of Target Chain>  (10) 


>  <UniProt (TrEMBL) Entry Name of Target Chain>  (10) 


>  <UniProt (TrEMBL) Primary ID of Target Chain>  (10) 


>  <UniProt (TrEMBL) Secondary ID(s) of Target Chain>  (10) 


>  <UniProt (TrEMBL) Alternative ID(s) of Target Chain>  (10) 


$$$$
Untitled Document-1
     RDKit          3D

 30 31  0  0  0  0  0  0  0  0999 V2000
   -0.3618    0.0466    0.4964 C   0  0  0  0  0  0  0  0  0  0  0  0
    1.0666   -0.1950    0.2027 C   0  0  0  0  0  0  0  0  0  0  0  0
    2.0606    0.7745    0.4777 C   0  0  0  0  0  0  0  0  0  0  0  0
    3.4080    0.4729    0.2447 C   0  0  0  0  0  0  0  0  0  0  0  0
    3.7829   -0.7662   -0.2926 C   0  0  0  0  0  0  0  0  0  0  0  0
    2.7981   -1.7236   -0.5657 C   0  0  0  0  0  0  0  0  0  0  0  0
    1.4525   -1.4389   -0.3249 C   0  0  0  0  0  0  0  0  0  0  0  0
   -0.6922    0.5139    1.6202 O   0  0  0  0  0  0  0  0  0  0  0  0
   -1.3703   -0.3080   -0.4650 N   0  0  0  0  0  0  0  0  0  0  0  0
    5.2318   -1.0894   -0.5084 C   0  0  0  0  0  0  0  0  0  0  0  0
    1.7467    2.0487    0.9559 O   0  0  0  0  0  0  0  0  0  0  0  0
   -2.7692   -0.0288   -0.2855 C   0  0  0  0  0  0  0  0  0  0  0  0
   -3.7384   -0.9808   -0.6624 C   0  0  0  0  0  0  0  0  0  0  0  0
   -5.1000   -0.6908   -0.5120 C   0  0  0  0  0  0  0  0  0  0  0  0
   -5.5054    0.5440   -0.0009 C   0  0  0  0  0  0  0  0  0  0  0  0
   -4.5519    1.4978    0.3593 C   0  0  0  0  0  0  0  0  0  0  0  0
   -3.1907    1.2172    0.2140 C   0  0  0  0  0  0  0  0  0  0  0  0
   -3.2402   -2.7018   -1.3434 Br  0  0  0  0  0  0  0  0  0  0  0  0
    4.1637    1.2160    0.4701 H   0  0  0  0  0  0  0  0  0  0  0  0
    3.0723   -2.6956   -0.9572 H   0  0  0  0  0  0  0  0  0  0  0  0
    0.7138   -2.2058   -0.5237 H   0  0  0  0  0  0  0  0  0  0  0  0
   -1.0784   -0.8196   -1.3273 H   0  0  0  0  0  0  0  0  0  0  0  0
    5.6515   -1.5376    0.4163 H   0  0  0  0  0  0  0  0  0  0  0  0
    5.3530   -1.8082   -1.3467 H   0  0  0  0  0  0  0  0  0  0  0  0
    5.8050   -0.1714   -0.7587 H   0  0  0  0  0  0  0  0  0  0  0  0
    0.7984    2.3871    1.0505 H   0  0  0  0  0  0  0  0  0  0  0  0
   -5.8459   -1.4243   -0.7905 H   0  0  0  0  0  0  0  0  0  0  0  0
   -6.5593    0.7634    0.1117 H   0  0  0  0  0  0  0  0  0  0  0  0
   -4.8678    2.4589    0.7441 H   0  0  0  0  0  0  0  0  0  0  0  0
   -2.4682    1.9814    0.4694 H   0  0  0  0  0  0  0  0  0  0  0  0
  1  2  1  0
  2  3  2  0
  3  4  1  0
  4  5  2  0
  5  6  1  0
  6  7  2  0
  2  7  1  0
  1  8  2  0
  1  9  1  0
  5 10  1  0
  3 11  1  0
 12 13  2  0
 13 14  1  0
 14 15  2  0
 15 16  1  0
 16 17  2  0
 12 17  1  0
 13 18  1  0
  9 12  1  0
  4 19  1  0
  6 20  1  0
  7 21  1  0
  9 22  1  0
 10 23  1  0
 10 24  1  0
 10 25  1  0
 11 26  1  0
 14 27  1  0
 15 28  1  0
 16 29  1  0
 17 30  1  0
M  END
>  <From>  (11) 
www.bindingDB.org

>  <BindingDB Reactant_set_id>  (11) 
408357

>  <Ligand InChI>  (11) 
InChI=1S/C14H12BrNO2/c1-9-6-7-10(13(17)8-9)14(18)16-12-5-3-2-4-11(12)15/h2-8,17H,1H3,(H,16,18)

>  <Ligand InChI Key>  (11) 
ZRWNLKAWOORDBK-UHFFFAOYSA-N

>  <BindingDB MonomerID>  (11) 
234312

>  <BindingDB Ligand Name>  (11) 
N-(2-bromophenyl)-2-hydroxy-4-methylbenzamide (14)

>  <Target Name>  (11) 
Epidermal growth factor receptor [645-1186]

>  <Target Source Organism According to Curator or DataSource>  (11) 


>  <Ki (nM)>  (11) 


>  <IC50 (nM)>  (11) 
 22190

>  <Kd (nM)>  (11) 


>  <EC50 (nM)>  (11) 


>  <kon (M-1-s-1)>  (11) 


>  <koff (s-1)>  (11) 


>  <pH>  (11) 
7.4

>  <Temp C>  (11) 
25.00

>  <Curation/DataSource>  (11) 
Curated from the literature by BindingDB

>  <Article DOI>  (11) 
10.3109/14756361003671060

>  <BindingDB Entry DOI>  (11) 
10.7270/Q2XW4HPN

>  <PMID>  (11) 
20583855

>  <PubChem AID>  (11) 
aid1802974

>  <Patent Number>  (11) 


>  <Authors>  (11) 
Zhu, ZW; Shi, L; Ruan, XM; Yang, Y; Li, HQ; Xu, SP; Zhu, HL

>  <Institution>  (11) 
Nanjing University

>  <Link to Ligand in BindingDB>  (11) 
http://www.bindingdb.org/bind/chemsearch/marvin/MolStructure.jsp?monomerid=234312

>  <Link to Ligand-Target Pair in BindingDB>  (11) 
http://www.bindingdb.org/jsp/dbsearch/PrimarySearch_ki.jsp?energyterm=kJ/mole&tag=r21&monomerid=234312&enzyme=Epidermal+growth+factor+receptor+%5B645-1186%5D&column=ki&startPg=0&Increment=50&submit=Search

>  <Ligand HET ID in PDB>  (11) 


>  <PDB ID(s) for Ligand-Target Complex>  (11) 


>  <PubChem CID of Ligand>  (11) 
24694277

>  <PubChem SID of Ligand>  (11) 
340094301

>  <ChEBI ID of Ligand>  (11) 


>  <ChEMBL ID of Ligand>  (11) 


>  <DrugBank ID of Ligand>  (11) 


>  <IUPHAR_GRAC ID of Ligand>  (11) 


>  <KEGG ID of Ligand>  (11) 


>  <ZINC ID of Ligand>  (11) 


>  <Number of Protein Chains in Target (bigger than 1 implies a multichain complex)>  (11) 
1

>  <BindingDB Target Chain Sequence>  (11) 
SIATGMVGALLLLLVVALGIGLFMRRRHIVRKRTLRRLLQERELVEPLTPSGEAPNQALLRILKETEFKKIKVLGSGAFGTVYKGLWIPEGEKVKIPVAIKELREATSPKANKEILDEAYVMASVDNPHVCRLLGICLTSTVQLITQLMPFGCLLDYVREHKDNIGSQYLLNWCVQIAKGMNYLEDRRLVHRDLAARNVLVKTPQHVKITDFGLAKLLGAEEKEYHAEGGKVPIKWMALESILHRIYTHQSDVWSYGVTVWELMTFGSKPYDGIPASEISSILEKGERLPQPPICTIDVYMIMVKCWMIDADSRPKFRELIIEFSKMARDPQRYLVIQGDERMHLPSPTDSNFYRALMDEEDMDDVVDADEYLIPQQGFFSSPSTSRTPLLSSLSATSNNSTVACIDRNGLQSCPIKEDSFLQRYSSDPTGALTEDSIDDTFLPVPEYINQSVPKRPAGSVQNPVYHNQPLNPAPSRDPHYQDPHSTAVGNPEYLNTVQPTCVNSTFDSPAHWAQKGSHQISLDNPDYQQDFFPKEAKPNGI

>  <PDB ID(s) of Target Chain>  (11) 
1M14,1M17,1XKK,1Z9I,2GS2,2GS6,2ITW,2ITX,2ITY,2J5E,2J5F,2J6M,2RF9,2RGP,3BEL,3GOP,3POZ,3VJO,3W2O,3W2P,3W2Q,3W2R,3W2S,3W32,3W33,4G5J,4I23,4JQ7,4JQ8,4JR3,4JRV,4LI5,4RJ4,4RJ5,4RJ6,4RJ7,4RJ8,4TKS,4WKQ,4WRG,4ZAU,5C8K,5C8M,5C8N,5CAL,5CAN,5CAO,5CAP,5CAQ,5CAS,5CAU,5CAV,5EDP,5EDQ,5EDR,5EM5,5EM6,5EM7,5EM8,5GNK,5HCX,5HCY,5HCZ,5HIB,5HIC,5UGB,5Y25,6D8E,6JZ0,6S89,6S8A,6VH4,6VHN,6VHP,7AEI,7AEM,7B85,7OXB,7SI1,7UKV,7ZYM,7ZYN,7ZYP,8A27,8A2A,8HY7

>  <UniProt (SwissProt) Recommended Name of Target Chain>  (11) 
Epidermal growth factor receptor

>  <UniProt (SwissProt) Entry Name of Target Chain>  (11) 
EGFR_HUMAN

>  <UniProt (SwissProt) Primary ID of Target Chain>  (11) 
P00533

>  <UniProt (SwissProt) Secondary ID(s) of Target Chain>  (11) 
O00688 O00732 P06268 Q14225 Q68GS5 Q92795 Q9BZS2 Q9GZX1 Q9H2C9 Q9H3C9 Q9UMD7 Q9UMD8 Q9UMG5

>  <UniProt (SwissProt) Alternative ID(s) of Target Chain>  (11) 


>  <UniProt (TrEMBL) Submitted Name of Target Chain>  (11) 


>  <UniProt (TrEMBL) Entry Name of Target Chain>  (11) 


>  <UniProt (TrEMBL) Primary ID of Target Chain>  (11) 


>  <UniProt (TrEMBL) Secondary ID(s) of Target Chain>  (11) 


>  <UniProt (TrEMBL) Alternative ID(s) of Target Chain>  (11) 


$$$$

     RDKit          3D

 31 32  0  0  0  0  0  0  0  0999 V2000
   -5.5172    0.4590    0.1866 C   0  0  0  0  0  0  0  0  0  0  0  0
   -4.5704    1.4424    0.4901 C   0  0  0  0  0  0  0  0  0  0  0  0
   -3.2047    1.2144    0.2170 C   0  0  0  0  0  0  0  0  0  0  0  0
   -2.8016   -0.0198   -0.3386 C   0  0  0  0  0  0  0  0  0  0  0  0
   -3.7708   -0.9850   -0.6561 C   0  0  0  0  0  0  0  0  0  0  0  0
   -5.1207   -0.7480   -0.3906 C   0  0  0  0  0  0  0  0  0  0  0  0
   -2.2488    2.2038    0.4611 O   0  0  0  0  0  0  0  0  0  0  0  0
   -1.3803   -0.3128   -0.6230 C   0  0  0  0  0  0  0  0  0  0  0  0
   -1.0746   -0.8294   -1.7320 O   0  0  0  0  0  0  0  0  0  0  0  0
   -0.3607   -0.0204    0.3496 N   0  0  0  0  0  0  0  0  0  0  0  0
    1.0367   -0.2983    0.1595 C   0  0  0  0  0  0  0  0  0  0  0  0
    1.4733   -1.4864   -0.4519 C   0  0  0  0  0  0  0  0  0  0  0  0
    2.8396   -1.7444   -0.6011 C   0  0  0  0  0  0  0  0  0  0  0  0
    3.7924   -0.8233   -0.1265 C   0  0  0  0  0  0  0  0  0  0  0  0
    3.3543    0.3471    0.5029 C   0  0  0  0  0  0  0  0  0  0  0  0
    1.9888    0.6043    0.6533 C   0  0  0  0  0  0  0  0  0  0  0  0
   -6.4248   -2.0786   -0.8115 Br  0  0  0  0  0  0  0  0  0  0  0  0
   -5.1930    3.0830    1.2613 Br  0  0  0  0  0  0  0  0  0  0  0  0
    5.1732   -1.0349   -0.2547 O   0  0  0  0  0  0  0  0  0  0  0  0
    5.7573   -2.1782   -0.8705 C   0  0  0  0  0  0  0  0  0  0  0  0
   -6.5650    0.6363    0.3932 H   0  0  0  0  0  0  0  0  0  0  0  0
   -3.4755   -1.9304   -1.0953 H   0  0  0  0  0  0  0  0  0  0  0  0
   -2.4778    3.1102    0.8472 H   0  0  0  0  0  0  0  0  0  0  0  0
   -0.6346    0.4718    1.2292 H   0  0  0  0  0  0  0  0  0  0  0  0
    0.7631   -2.2295   -0.7887 H   0  0  0  0  0  0  0  0  0  0  0  0
    3.1437   -2.6664   -1.0775 H   0  0  0  0  0  0  0  0  0  0  0  0
    4.0766    1.0603    0.8795 H   0  0  0  0  0  0  0  0  0  0  0  0
    1.6705    1.5147    1.1456 H   0  0  0  0  0  0  0  0  0  0  0  0
    5.4623   -3.0988   -0.3239 H   0  0  0  0  0  0  0  0  0  0  0  0
    6.8620   -2.0836   -0.8366 H   0  0  0  0  0  0  0  0  0  0  0  0
    5.4384   -2.2448   -1.9321 H   0  0  0  0  0  0  0  0  0  0  0  0
  8 10  1  0
  2  3  2  0
 10 11  1  0
  5  6  1  0
 11 12  2  0
  6  1  2  0
 12 13  1  0
  1  2  1  0
 13 14  2  0
  3  7  1  0
 14 15  1  0
  3  4  1  0
 15 16  2  0
 16 11  1  0
  4  8  1  0
  6 17  1  0
  2 18  1  0
  8  9  2  0
 14 19  1  0
  4  5  2  0
 19 20  1  0
  1 21  1  0
  5 22  1  0
  7 23  1  0
 10 24  1  0
 12 25  1  0
 13 26  1  0
 15 27  1  0
 16 28  1  0
 20 29  1  0
 20 30  1  0
 20 31  1  0
M  END
>  <From>  (12) 
www.bindingDB.org

>  <BindingDB Reactant_set_id>  (12) 
408375

>  <Ligand InChI>  (12) 
InChI=1S/C14H11Br2NO3/c1-20-10-4-2-9(3-5-10)17-14(19)11-6-8(15)7-12(16)13(11)18/h2-7,18H,1H3,(H,17,19)

>  <Ligand InChI Key>  (12) 
YFQYZLCHJYREBN-UHFFFAOYSA-N

>  <BindingDB MonomerID>  (12) 
50347555

>  <BindingDB Ligand Name>  (12) 
3,5-Dibromo-2-hydroxy-N-(4-methoxyphenyl)benzamide (32)::CHEMBL1801802

>  <Target Name>  (12) 
Epidermal growth factor receptor [645-1186]

>  <Target Source Organism According to Curator or DataSource>  (12) 


>  <Ki (nM)>  (12) 


>  <IC50 (nM)>  (12) 
 22390

>  <Kd (nM)>  (12) 


>  <EC50 (nM)>  (12) 


>  <kon (M-1-s-1)>  (12) 


>  <koff (s-1)>  (12) 


>  <pH>  (12) 
7.4

>  <Temp C>  (12) 
25.00

>  <Curation/DataSource>  (12) 
Curated from the literature by BindingDB

>  <Article DOI>  (12) 
10.3109/14756361003671060

>  <BindingDB Entry DOI>  (12) 
10.7270/Q2XW4HPN

>  <PMID>  (12) 
20583855

>  <PubChem AID>  (12) 
aid1802974

>  <Patent Number>  (12) 


>  <Authors>  (12) 
Zhu, ZW; Shi, L; Ruan, XM; Yang, Y; Li, HQ; Xu, SP; Zhu, HL

>  <Institution>  (12) 
Nanjing University

>  <Link to Ligand in BindingDB>  (12) 
http://www.bindingdb.org/bind/chemsearch/marvin/MolStructure.jsp?monomerid=50347555

>  <Link to Ligand-Target Pair in BindingDB>  (12) 
http://www.bindingdb.org/jsp/dbsearch/PrimarySearch_ki.jsp?energyterm=kJ/mole&tag=r21&monomerid=50347555&enzyme=Epidermal+growth+factor+receptor+%5B645-1186%5D&column=ki&startPg=0&Increment=50&submit=Search

>  <Ligand HET ID in PDB>  (12) 


>  <PDB ID(s) for Ligand-Target Complex>  (12) 


>  <PubChem CID of Ligand>  (12) 
3401015

>  <PubChem SID of Ligand>  (12) 
136354241

>  <ChEBI ID of Ligand>  (12) 


>  <ChEMBL ID of Ligand>  (12) 
CHEMBL1801802

>  <DrugBank ID of Ligand>  (12) 


>  <IUPHAR_GRAC ID of Ligand>  (12) 


>  <KEGG ID of Ligand>  (12) 


>  <ZINC ID of Ligand>  (12) 
ZINC03156573

>  <Number of Protein Chains in Target (bigger than 1 implies a multichain complex)>  (12) 
1

>  <BindingDB Target Chain Sequence>  (12) 
SIATGMVGALLLLLVVALGIGLFMRRRHIVRKRTLRRLLQERELVEPLTPSGEAPNQALLRILKETEFKKIKVLGSGAFGTVYKGLWIPEGEKVKIPVAIKELREATSPKANKEILDEAYVMASVDNPHVCRLLGICLTSTVQLITQLMPFGCLLDYVREHKDNIGSQYLLNWCVQIAKGMNYLEDRRLVHRDLAARNVLVKTPQHVKITDFGLAKLLGAEEKEYHAEGGKVPIKWMALESILHRIYTHQSDVWSYGVTVWELMTFGSKPYDGIPASEISSILEKGERLPQPPICTIDVYMIMVKCWMIDADSRPKFRELIIEFSKMARDPQRYLVIQGDERMHLPSPTDSNFYRALMDEEDMDDVVDADEYLIPQQGFFSSPSTSRTPLLSSLSATSNNSTVACIDRNGLQSCPIKEDSFLQRYSSDPTGALTEDSIDDTFLPVPEYINQSVPKRPAGSVQNPVYHNQPLNPAPSRDPHYQDPHSTAVGNPEYLNTVQPTCVNSTFDSPAHWAQKGSHQISLDNPDYQQDFFPKEAKPNGI

>  <PDB ID(s) of Target Chain>  (12) 
1M14,1M17,1XKK,1Z9I,2GS2,2GS6,2ITW,2ITX,2ITY,2J5E,2J5F,2J6M,2RF9,2RGP,3BEL,3GOP,3POZ,3VJO,3W2O,3W2P,3W2Q,3W2R,3W2S,3W32,3W33,4G5J,4I23,4JQ7,4JQ8,4JR3,4JRV,4LI5,4RJ4,4RJ5,4RJ6,4RJ7,4RJ8,4TKS,4WKQ,4WRG,4ZAU,5C8K,5C8M,5C8N,5CAL,5CAN,5CAO,5CAP,5CAQ,5CAS,5CAU,5CAV,5EDP,5EDQ,5EDR,5EM5,5EM6,5EM7,5EM8,5GNK,5HCX,5HCY,5HCZ,5HIB,5HIC,5UGB,5Y25,6D8E,6JZ0,6S89,6S8A,6VH4,6VHN,6VHP,7AEI,7AEM,7B85,7OXB,7SI1,7UKV,7ZYM,7ZYN,7ZYP,8A27,8A2A,8HY7

>  <UniProt (SwissProt) Recommended Name of Target Chain>  (12) 
Epidermal growth factor receptor

>  <UniProt (SwissProt) Entry Name of Target Chain>  (12) 
EGFR_HUMAN

>  <UniProt (SwissProt) Primary ID of Target Chain>  (12) 
P00533

>  <UniProt (SwissProt) Secondary ID(s) of Target Chain>  (12) 
O00688 O00732 P06268 Q14225 Q68GS5 Q92795 Q9BZS2 Q9GZX1 Q9H2C9 Q9H3C9 Q9UMD7 Q9UMD8 Q9UMG5

>  <UniProt (SwissProt) Alternative ID(s) of Target Chain>  (12) 


>  <UniProt (TrEMBL) Submitted Name of Target Chain>  (12) 


>  <UniProt (TrEMBL) Entry Name of Target Chain>  (12) 


>  <UniProt (TrEMBL) Primary ID of Target Chain>  (12) 


>  <UniProt (TrEMBL) Secondary ID(s) of Target Chain>  (12) 


>  <UniProt (TrEMBL) Alternative ID(s) of Target Chain>  (12) 


$$$$
Untitled Document-1
     RDKit          3D

 27 28  0  0  0  0  0  0  0  0999 V2000
   -1.3818   -0.4337   -0.5453 C   0  0  0  0  0  0  0  0  0  0  0  0
   -2.8032   -0.1066   -0.2788 C   0  0  0  0  0  0  0  0  0  0  0  0
   -3.8099   -1.0852   -0.4330 C   0  0  0  0  0  0  0  0  0  0  0  0
   -5.1515   -0.7535   -0.1915 C   0  0  0  0  0  0  0  0  0  0  0  0
   -5.4986    0.5403    0.2011 C   0  0  0  0  0  0  0  0  0  0  0  0
   -4.5099    1.5132    0.3503 C   0  0  0  0  0  0  0  0  0  0  0  0
   -3.1706    1.1954    0.1102 C   0  0  0  0  0  0  0  0  0  0  0  0
   -1.0988   -1.2185   -1.4912 O   0  0  0  0  0  0  0  0  0  0  0  0
   -0.3296    0.1522    0.2437 N   0  0  0  0  0  0  0  0  0  0  0  0
   -3.4774   -2.3866   -0.8104 O   0  0  0  0  0  0  0  0  0  0  0  0
    1.0605   -0.1869    0.1007 C   0  0  0  0  0  0  0  0  0  0  0  0
    2.0375    0.8146    0.2384 C   0  0  0  0  0  0  0  0  0  0  0  0
    3.3950    0.4959    0.1272 C   0  0  0  0  0  0  0  0  0  0  0  0
    3.7891   -0.8238   -0.1060 C   0  0  0  0  0  0  0  0  0  0  0  0
    2.8270   -1.8299   -0.2209 C   0  0  0  0  0  0  0  0  0  0  0  0
    1.4686   -1.5171   -0.1118 C   0  0  0  0  0  0  0  0  0  0  0  0
    1.6725    2.1020    0.4632 F   0  0  0  0  0  0  0  0  0  0  0  0
   -5.9265   -1.5009   -0.3050 H   0  0  0  0  0  0  0  0  0  0  0  0
   -6.5354    0.7899    0.3861 H   0  0  0  0  0  0  0  0  0  0  0  0
   -4.7823    2.5184    0.6451 H   0  0  0  0  0  0  0  0  0  0  0  0
   -2.4297    1.9786    0.2024 H   0  0  0  0  0  0  0  0  0  0  0  0
   -0.5712    0.8976    0.9337 H   0  0  0  0  0  0  0  0  0  0  0  0
   -4.1835   -3.1048   -0.9221 H   0  0  0  0  0  0  0  0  0  0  0  0
    4.1431    1.2723    0.2235 H   0  0  0  0  0  0  0  0  0  0  0  0
    4.8402   -1.0682   -0.1893 H   0  0  0  0  0  0  0  0  0  0  0  0
    3.1343   -2.8546   -0.3853 H   0  0  0  0  0  0  0  0  0  0  0  0
    0.7425   -2.3173   -0.1665 H   0  0  0  0  0  0  0  0  0  0  0  0
  1  2  1  0
  2  3  2  0
  3  4  1  0
  4  5  2  0
  5  6  1  0
  6  7  2  0
  2  7  1  0
  1  8  2  0
  1  9  1  0
  3 10  1  0
 11 12  2  0
 12 13  1  0
 13 14  2  0
 14 15  1  0
 15 16  2  0
 11 16  1  0
 12 17  1  0
  9 11  1  0
  4 18  1  0
  5 19  1  0
  6 20  1  0
  7 21  1  0
  9 22  1  0
 10 23  1  0
 13 24  1  0
 14 25  1  0
 15 26  1  0
 16 27  1  0
M  END
>  <From>  (13) 
www.bindingDB.org

>  <BindingDB Reactant_set_id>  (13) 
408345

>  <Ligand InChI>  (13) 
InChI=1S/C13H10FNO2/c14-10-6-2-3-7-11(10)15-13(17)9-5-1-4-8-12(9)16/h1-8,16H,(H,15,17)

>  <Ligand InChI Key>  (13) 
KRPASKLFRLGQHR-UHFFFAOYSA-N

>  <BindingDB MonomerID>  (13) 
234301

>  <BindingDB Ligand Name>  (13) 
N-(2-fluorophenyl)-2-hydroxybenzamide (2)

>  <Target Name>  (13) 
Epidermal growth factor receptor [645-1186]

>  <Target Source Organism According to Curator or DataSource>  (13) 


>  <Ki (nM)>  (13) 


>  <IC50 (nM)>  (13) 
 24830

>  <Kd (nM)>  (13) 


>  <EC50 (nM)>  (13) 


>  <kon (M-1-s-1)>  (13) 


>  <koff (s-1)>  (13) 


>  <pH>  (13) 
7.4

>  <Temp C>  (13) 
25.00

>  <Curation/DataSource>  (13) 
Curated from the literature by BindingDB

>  <Article DOI>  (13) 
10.3109/14756361003671060

>  <BindingDB Entry DOI>  (13) 
10.7270/Q2XW4HPN

>  <PMID>  (13) 
20583855

>  <PubChem AID>  (13) 
aid1802974

>  <Patent Number>  (13) 


>  <Authors>  (13) 
Zhu, ZW; Shi, L; Ruan, XM; Yang, Y; Li, HQ; Xu, SP; Zhu, HL

>  <Institution>  (13) 
Nanjing University

>  <Link to Ligand in BindingDB>  (13) 
http://www.bindingdb.org/bind/chemsearch/marvin/MolStructure.jsp?monomerid=234301

>  <Link to Ligand-Target Pair in BindingDB>  (13) 
http://www.bindingdb.org/jsp/dbsearch/PrimarySearch_ki.jsp?energyterm=kJ/mole&tag=r21&monomerid=234301&enzyme=Epidermal+growth+factor+receptor+%5B645-1186%5D&column=ki&startPg=0&Increment=50&submit=Search

>  <Ligand HET ID in PDB>  (13) 


>  <PDB ID(s) for Ligand-Target Complex>  (13) 


>  <PubChem CID of Ligand>  (13) 
24285067

>  <PubChem SID of Ligand>  (13) 
340094290

>  <ChEBI ID of Ligand>  (13) 


>  <ChEMBL ID of Ligand>  (13) 


>  <DrugBank ID of Ligand>  (13) 


>  <IUPHAR_GRAC ID of Ligand>  (13) 


>  <KEGG ID of Ligand>  (13) 


>  <ZINC ID of Ligand>  (13) 


>  <Number of Protein Chains in Target (bigger than 1 implies a multichain complex)>  (13) 
1

>  <BindingDB Target Chain Sequence>  (13) 
SIATGMVGALLLLLVVALGIGLFMRRRHIVRKRTLRRLLQERELVEPLTPSGEAPNQALLRILKETEFKKIKVLGSGAFGTVYKGLWIPEGEKVKIPVAIKELREATSPKANKEILDEAYVMASVDNPHVCRLLGICLTSTVQLITQLMPFGCLLDYVREHKDNIGSQYLLNWCVQIAKGMNYLEDRRLVHRDLAARNVLVKTPQHVKITDFGLAKLLGAEEKEYHAEGGKVPIKWMALESILHRIYTHQSDVWSYGVTVWELMTFGSKPYDGIPASEISSILEKGERLPQPPICTIDVYMIMVKCWMIDADSRPKFRELIIEFSKMARDPQRYLVIQGDERMHLPSPTDSNFYRALMDEEDMDDVVDADEYLIPQQGFFSSPSTSRTPLLSSLSATSNNSTVACIDRNGLQSCPIKEDSFLQRYSSDPTGALTEDSIDDTFLPVPEYINQSVPKRPAGSVQNPVYHNQPLNPAPSRDPHYQDPHSTAVGNPEYLNTVQPTCVNSTFDSPAHWAQKGSHQISLDNPDYQQDFFPKEAKPNGI

>  <PDB ID(s) of Target Chain>  (13) 
1M14,1M17,1XKK,1Z9I,2GS2,2GS6,2ITW,2ITX,2ITY,2J5E,2J5F,2J6M,2RF9,2RGP,3BEL,3GOP,3POZ,3VJO,3W2O,3W2P,3W2Q,3W2R,3W2S,3W32,3W33,4G5J,4I23,4JQ7,4JQ8,4JR3,4JRV,4LI5,4RJ4,4RJ5,4RJ6,4RJ7,4RJ8,4TKS,4WKQ,4WRG,4ZAU,5C8K,5C8M,5C8N,5CAL,5CAN,5CAO,5CAP,5CAQ,5CAS,5CAU,5CAV,5EDP,5EDQ,5EDR,5EM5,5EM6,5EM7,5EM8,5GNK,5HCX,5HCY,5HCZ,5HIB,5HIC,5UGB,5Y25,6D8E,6JZ0,6S89,6S8A,6VH4,6VHN,6VHP,7AEI,7AEM,7B85,7OXB,7SI1,7UKV,7ZYM,7ZYN,7ZYP,8A27,8A2A,8HY7

>  <UniProt (SwissProt) Recommended Name of Target Chain>  (13) 
Epidermal growth factor receptor

>  <UniProt (SwissProt) Entry Name of Target Chain>  (13) 
EGFR_HUMAN

>  <UniProt (SwissProt) Primary ID of Target Chain>  (13) 
P00533

>  <UniProt (SwissProt) Secondary ID(s) of Target Chain>  (13) 
O00688 O00732 P06268 Q14225 Q68GS5 Q92795 Q9BZS2 Q9GZX1 Q9H2C9 Q9H3C9 Q9UMD7 Q9UMD8 Q9UMG5

>  <UniProt (SwissProt) Alternative ID(s) of Target Chain>  (13) 


>  <UniProt (TrEMBL) Submitted Name of Target Chain>  (13) 


>  <UniProt (TrEMBL) Entry Name of Target Chain>  (13) 


>  <UniProt (TrEMBL) Primary ID of Target Chain>  (13) 


>  <UniProt (TrEMBL) Secondary ID(s) of Target Chain>  (13) 


>  <UniProt (TrEMBL) Alternative ID(s) of Target Chain>  (13) 


$$$$
478805
     RDKit          3D

 30 31  0  0  0  0  0  0  0  0999 V2000
   -3.4267   -1.9794   -1.6804 O   0  0  0  0  0  0  0  0  0  0  0  0
   -1.1824   -1.8574   -0.1176 O   0  0  0  0  0  0  0  0  0  0  0  0
   -0.3102    0.3154   -0.1093 N   0  0  0  0  0  0  0  0  0  0  0  0
    1.0739   -0.0709   -0.1575 C   0  0  0  0  0  0  0  0  0  0  0  0
   -2.8089   -0.1383   -0.2095 C   0  0  0  0  0  0  0  0  0  0  0  0
    3.8084   -0.7378   -0.2763 C   0  0  0  0  0  0  0  0  0  0  0  0
    2.0151    0.6522    0.5898 C   0  0  0  0  0  0  0  0  0  0  0  0
    1.5156   -1.1199   -0.9835 C   0  0  0  0  0  0  0  0  0  0  0  0
   -1.4067   -0.6168   -0.1522 C   0  0  0  0  0  0  0  0  0  0  0  0
    3.3704    0.3128    0.5431 C   0  0  0  0  0  0  0  0  0  0  0  0
    2.8713   -1.4586   -1.0311 C   0  0  0  0  0  0  0  0  0  0  0  0
   -3.7800   -0.8395   -0.9577 C   0  0  0  0  0  0  0  0  0  0  0  0
   -3.1958    1.0125    0.5031 C   0  0  0  0  0  0  0  0  0  0  0  0
    5.2570   -1.1267   -0.2979 C   0  0  0  0  0  0  0  0  0  0  0  0
   -5.1057   -0.3810   -0.9883 C   0  0  0  0  0  0  0  0  0  0  0  0
   -4.5186    1.4608    0.4629 C   0  0  0  0  0  0  0  0  0  0  0  0
   -5.4716    0.7662   -0.2824 C   0  0  0  0  0  0  0  0  0  0  0  0
   -4.1067   -2.4945   -2.2273 H   0  0  0  0  0  0  0  0  0  0  0  0
   -0.5157    1.3315    0.0147 H   0  0  0  0  0  0  0  0  0  0  0  0
    1.6942    1.4716    1.2208 H   0  0  0  0  0  0  0  0  0  0  0  0
    0.8206   -1.6624   -1.6102 H   0  0  0  0  0  0  0  0  0  0  0  0
    4.0778    0.8713    1.1437 H   0  0  0  0  0  0  0  0  0  0  0  0
    3.1912   -2.2768   -1.6647 H   0  0  0  0  0  0  0  0  0  0  0  0
   -2.4862    1.5527    1.1157 H   0  0  0  0  0  0  0  0  0  0  0  0
    5.5333   -1.5545   -1.2852 H   0  0  0  0  0  0  0  0  0  0  0  0
    5.4475   -1.8838    0.4910 H   0  0  0  0  0  0  0  0  0  0  0  0
    5.9033   -0.2419   -0.1147 H   0  0  0  0  0  0  0  0  0  0  0  0
   -5.8531   -0.9131   -1.5631 H   0  0  0  0  0  0  0  0  0  0  0  0
   -4.8067    2.3445    1.0177 H   0  0  0  0  0  0  0  0  0  0  0  0
   -6.4959    1.1150   -0.3102 H   0  0  0  0  0  0  0  0  0  0  0  0
  1 12  1  0
  2  9  2  0
  3  4  1  0
  3  9  1  0
  4  7  2  0
  4  8  1  0
  5  9  1  0
  5 12  2  0
  5 13  1  0
  6 10  2  0
  6 11  1  0
  6 14  1  0
  7 10  1  0
  8 11  2  0
 12 15  1  0
 13 16  2  0
 15 17  2  0
 16 17  1  0
  1 18  1  0
  3 19  1  0
  7 20  1  0
  8 21  1  0
 10 22  1  0
 11 23  1  0
 13 24  1  0
 14 25  1  0
 14 26  1  0
 14 27  1  0
 15 28  1  0
 16 29  1  0
 17 30  1  0
M  END
>  <From>  (14) 
www.bindingDB.org

>  <BindingDB Reactant_set_id>  (14) 
408353

>  <Ligand InChI>  (14) 
InChI=1S/C14H13NO2/c1-10-6-8-11(9-7-10)15-14(17)12-4-2-3-5-13(12)16/h2-9,16H,1H3,(H,15,17)

>  <Ligand InChI Key>  (14) 
QMLRNTPTRWMCOP-UHFFFAOYSA-N

>  <BindingDB MonomerID>  (14) 
49214

>  <BindingDB Ligand Name>  (14) 
2-Hydroxy-N-p-tolylbenzamide (10)::2-hydroxy-N-(4-methylphenyl)benzamide::2-hydroxy-N-(p-tolyl)benzamide::MLS000053968::N-(4-methylphenyl)-2-oxidanyl-benzamide::SMR000061984::cid_478805

>  <Target Name>  (14) 
Epidermal growth factor receptor [645-1186]

>  <Target Source Organism According to Curator or DataSource>  (14) 


>  <Ki (nM)>  (14) 


>  <IC50 (nM)>  (14) 
 25740

>  <Kd (nM)>  (14) 


>  <EC50 (nM)>  (14) 


>  <kon (M-1-s-1)>  (14) 


>  <koff (s-1)>  (14) 


>  <pH>  (14) 
7.4

>  <Temp C>  (14) 
25.00

>  <Curation/DataSource>  (14) 
Curated from the literature by BindingDB

>  <Article DOI>  (14) 
10.3109/14756361003671060

>  <BindingDB Entry DOI>  (14) 
10.7270/Q2XW4HPN

>  <PMID>  (14) 
20583855

>  <PubChem AID>  (14) 
aid1802974

>  <Patent Number>  (14) 


>  <Authors>  (14) 
Zhu, ZW; Shi, L; Ruan, XM; Yang, Y; Li, HQ; Xu, SP; Zhu, HL

>  <Institution>  (14) 
Nanjing University

>  <Link to Ligand in BindingDB>  (14) 
http://www.bindingdb.org/bind/chemsearch/marvin/MolStructure.jsp?monomerid=49214

>  <Link to Ligand-Target Pair in BindingDB>  (14) 
http://www.bindingdb.org/jsp/dbsearch/PrimarySearch_ki.jsp?energyterm=kJ/mole&tag=r21&monomerid=49214&enzyme=Epidermal+growth+factor+receptor+%5B645-1186%5D&column=ki&startPg=0&Increment=50&submit=Search

>  <Ligand HET ID in PDB>  (14) 


>  <PDB ID(s) for Ligand-Target Complex>  (14) 


>  <PubChem CID of Ligand>  (14) 
478805

>  <PubChem SID of Ligand>  (14) 
252629495

>  <ChEBI ID of Ligand>  (14) 


>  <ChEMBL ID of Ligand>  (14) 


>  <DrugBank ID of Ligand>  (14) 


>  <IUPHAR_GRAC ID of Ligand>  (14) 


>  <KEGG ID of Ligand>  (14) 


>  <ZINC ID of Ligand>  (14) 
ZINC01440600

>  <Number of Protein Chains in Target (bigger than 1 implies a multichain complex)>  (14) 
1

>  <BindingDB Target Chain Sequence>  (14) 
SIATGMVGALLLLLVVALGIGLFMRRRHIVRKRTLRRLLQERELVEPLTPSGEAPNQALLRILKETEFKKIKVLGSGAFGTVYKGLWIPEGEKVKIPVAIKELREATSPKANKEILDEAYVMASVDNPHVCRLLGICLTSTVQLITQLMPFGCLLDYVREHKDNIGSQYLLNWCVQIAKGMNYLEDRRLVHRDLAARNVLVKTPQHVKITDFGLAKLLGAEEKEYHAEGGKVPIKWMALESILHRIYTHQSDVWSYGVTVWELMTFGSKPYDGIPASEISSILEKGERLPQPPICTIDVYMIMVKCWMIDADSRPKFRELIIEFSKMARDPQRYLVIQGDERMHLPSPTDSNFYRALMDEEDMDDVVDADEYLIPQQGFFSSPSTSRTPLLSSLSATSNNSTVACIDRNGLQSCPIKEDSFLQRYSSDPTGALTEDSIDDTFLPVPEYINQSVPKRPAGSVQNPVYHNQPLNPAPSRDPHYQDPHSTAVGNPEYLNTVQPTCVNSTFDSPAHWAQKGSHQISLDNPDYQQDFFPKEAKPNGI

>  <PDB ID(s) of Target Chain>  (14) 
1M14,1M17,1XKK,1Z9I,2GS2,2GS6,2ITW,2ITX,2ITY,2J5E,2J5F,2J6M,2RF9,2RGP,3BEL,3GOP,3POZ,3VJO,3W2O,3W2P,3W2Q,3W2R,3W2S,3W32,3W33,4G5J,4I23,4JQ7,4JQ8,4JR3,4JRV,4LI5,4RJ4,4RJ5,4RJ6,4RJ7,4RJ8,4TKS,4WKQ,4WRG,4ZAU,5C8K,5C8M,5C8N,5CAL,5CAN,5CAO,5CAP,5CAQ,5CAS,5CAU,5CAV,5EDP,5EDQ,5EDR,5EM5,5EM6,5EM7,5EM8,5GNK,5HCX,5HCY,5HCZ,5HIB,5HIC,5UGB,5Y25,6D8E,6JZ0,6S89,6S8A,6VH4,6VHN,6VHP,7AEI,7AEM,7B85,7OXB,7SI1,7UKV,7ZYM,7ZYN,7ZYP,8A27,8A2A,8HY7

>  <UniProt (SwissProt) Recommended Name of Target Chain>  (14) 
Epidermal growth factor receptor

>  <UniProt (SwissProt) Entry Name of Target Chain>  (14) 
EGFR_HUMAN

>  <UniProt (SwissProt) Primary ID of Target Chain>  (14) 
P00533

>  <UniProt (SwissProt) Secondary ID(s) of Target Chain>  (14) 
O00688 O00732 P06268 Q14225 Q68GS5 Q92795 Q9BZS2 Q9GZX1 Q9H2C9 Q9H3C9 Q9UMD7 Q9UMD8 Q9UMG5

>  <UniProt (SwissProt) Alternative ID(s) of Target Chain>  (14) 


>  <UniProt (TrEMBL) Submitted Name of Target Chain>  (14) 


>  <UniProt (TrEMBL) Entry Name of Target Chain>  (14) 


>  <UniProt (TrEMBL) Primary ID of Target Chain>  (14) 


>  <UniProt (TrEMBL) Secondary ID(s) of Target Chain>  (14) 


>  <UniProt (TrEMBL) Alternative ID(s) of Target Chain>  (14) 


$$$$
Untitled Document-1
     RDKit          3D

 27 28  0  0  0  0  0  0  0  0999 V2000
   -1.4378   -0.5657   -0.1755 C   0  0  0  0  0  0  0  0  0  0  0  0
   -2.8366   -0.0895   -0.2322 C   0  0  0  0  0  0  0  0  0  0  0  0
   -3.2558    1.0580    0.4765 C   0  0  0  0  0  0  0  0  0  0  0  0
   -4.5965    1.4870    0.3768 C   0  0  0  0  0  0  0  0  0  0  0  0
   -5.5062    0.7621   -0.3994 C   0  0  0  0  0  0  0  0  0  0  0  0
   -5.0977   -0.3888   -1.0745 C   0  0  0  0  0  0  0  0  0  0  0  0
   -3.7712   -0.8153   -0.9882 C   0  0  0  0  0  0  0  0  0  0  0  0
   -1.2192   -1.7950    0.0012 O   0  0  0  0  0  0  0  0  0  0  0  0
   -0.3415    0.3545   -0.3252 N   0  0  0  0  0  0  0  0  0  0  0  0
   -2.3438    1.7354    1.2899 O   0  0  0  0  0  0  0  0  0  0  0  0
    1.0427   -0.0326   -0.3078 C   0  0  0  0  0  0  0  0  0  0  0  0
    1.9838    0.8123    0.3004 C   0  0  0  0  0  0  0  0  0  0  0  0
    3.3398    0.4713    0.3104 C   0  0  0  0  0  0  0  0  0  0  0  0
    3.7700   -0.7094   -0.3024 C   0  0  0  0  0  0  0  0  0  0  0  0
    2.8433   -1.5447   -0.9335 C   0  0  0  0  0  0  0  0  0  0  0  0
    1.4863   -1.2067   -0.9440 C   0  0  0  0  0  0  0  0  0  0  0  0
    5.6229   -1.1722   -0.2916 Br  0  0  0  0  0  0  0  0  0  0  0  0
   -6.3525   -1.3771   -2.1220 Br  0  0  0  0  0  0  0  0  0  0  0  0
   -5.2363    3.0449    1.2922 Br  0  0  0  0  0  0  0  0  0  0  0  0
   -6.5354    1.0901   -0.4724 H   0  0  0  0  0  0  0  0  0  0  0  0
   -3.4650   -1.7050   -1.5254 H   0  0  0  0  0  0  0  0  0  0  0  0
   -0.5514    1.3750   -0.3992 H   0  0  0  0  0  0  0  0  0  0  0  0
   -2.5873    2.5557    1.8291 H   0  0  0  0  0  0  0  0  0  0  0  0
    1.6629    1.7305    0.7763 H   0  0  0  0  0  0  0  0  0  0  0  0
    4.0546    1.1260    0.7921 H   0  0  0  0  0  0  0  0  0  0  0  0
    3.1746   -2.4507   -1.4246 H   0  0  0  0  0  0  0  0  0  0  0  0
    0.7936   -1.8471   -1.4730 H   0  0  0  0  0  0  0  0  0  0  0  0
  1  2  1  0
  2  3  2  0
  3  4  1  0
  4  5  2  0
  5  6  1  0
  6  7  2  0
  2  7  1  0
  1  8  2  0
  1  9  1  0
  3 10  1  0
 11 12  2  0
 12 13  1  0
 13 14  2  0
 14 15  1  0
 15 16  2  0
 11 16  1  0
 14 17  1  0
  9 11  1  0
  6 18  1  0
  4 19  1  0
  5 20  1  0
  7 21  1  0
  9 22  1  0
 10 23  1  0
 12 24  1  0
 13 25  1  0
 15 26  1  0
 16 27  1  0
M  END
>  <From>  (15) 
www.bindingDB.org

>  <BindingDB Reactant_set_id>  (15) 
408374

>  <Ligand InChI>  (15) 
InChI=1S/C13H8Br3NO2/c14-7-1-3-9(4-2-7)17-13(19)10-5-8(15)6-11(16)12(10)18/h1-6,18H,(H,17,19)

>  <Ligand InChI Key>  (15) 
KVSKGMLNBAPGKH-UHFFFAOYSA-N

>  <BindingDB MonomerID>  (15) 
234329

>  <BindingDB Ligand Name>  (15) 
3,5-Dibromo-N-(4-bromophenyl)-2-hydroxybenzamide (31)

>  <Target Name>  (15) 
Epidermal growth factor receptor [645-1186]

>  <Target Source Organism According to Curator or DataSource>  (15) 


>  <Ki (nM)>  (15) 


>  <IC50 (nM)>  (15) 
 28530

>  <Kd (nM)>  (15) 


>  <EC50 (nM)>  (15) 


>  <kon (M-1-s-1)>  (15) 


>  <koff (s-1)>  (15) 


>  <pH>  (15) 
7.4

>  <Temp C>  (15) 
25.00

>  <Curation/DataSource>  (15) 
Curated from the literature by BindingDB

>  <Article DOI>  (15) 
10.3109/14756361003671060

>  <BindingDB Entry DOI>  (15) 
10.7270/Q2XW4HPN

>  <PMID>  (15) 
20583855

>  <PubChem AID>  (15) 
aid1802974

>  <Patent Number>  (15) 


>  <Authors>  (15) 
Zhu, ZW; Shi, L; Ruan, XM; Yang, Y; Li, HQ; Xu, SP; Zhu, HL

>  <Institution>  (15) 
Nanjing University

>  <Link to Ligand in BindingDB>  (15) 
http://www.bindingdb.org/bind/chemsearch/marvin/MolStructure.jsp?monomerid=234329

>  <Link to Ligand-Target Pair in BindingDB>  (15) 
http://www.bindingdb.org/jsp/dbsearch/PrimarySearch_ki.jsp?energyterm=kJ/mole&tag=r21&monomerid=234329&enzyme=Epidermal+growth+factor+receptor+%5B645-1186%5D&column=ki&startPg=0&Increment=50&submit=Search

>  <Ligand HET ID in PDB>  (15) 


>  <PDB ID(s) for Ligand-Target Complex>  (15) 


>  <PubChem CID of Ligand>  (15) 
14868

>  <PubChem SID of Ligand>  (15) 
340094318

>  <ChEBI ID of Ligand>  (15) 


>  <ChEMBL ID of Ligand>  (15) 


>  <DrugBank ID of Ligand>  (15) 


>  <IUPHAR_GRAC ID of Ligand>  (15) 


>  <KEGG ID of Ligand>  (15) 


>  <ZINC ID of Ligand>  (15) 


>  <Number of Protein Chains in Target (bigger than 1 implies a multichain complex)>  (15) 
1

>  <BindingDB Target Chain Sequence>  (15) 
SIATGMVGALLLLLVVALGIGLFMRRRHIVRKRTLRRLLQERELVEPLTPSGEAPNQALLRILKETEFKKIKVLGSGAFGTVYKGLWIPEGEKVKIPVAIKELREATSPKANKEILDEAYVMASVDNPHVCRLLGICLTSTVQLITQLMPFGCLLDYVREHKDNIGSQYLLNWCVQIAKGMNYLEDRRLVHRDLAARNVLVKTPQHVKITDFGLAKLLGAEEKEYHAEGGKVPIKWMALESILHRIYTHQSDVWSYGVTVWELMTFGSKPYDGIPASEISSILEKGERLPQPPICTIDVYMIMVKCWMIDADSRPKFRELIIEFSKMARDPQRYLVIQGDERMHLPSPTDSNFYRALMDEEDMDDVVDADEYLIPQQGFFSSPSTSRTPLLSSLSATSNNSTVACIDRNGLQSCPIKEDSFLQRYSSDPTGALTEDSIDDTFLPVPEYINQSVPKRPAGSVQNPVYHNQPLNPAPSRDPHYQDPHSTAVGNPEYLNTVQPTCVNSTFDSPAHWAQKGSHQISLDNPDYQQDFFPKEAKPNGI

>  <PDB ID(s) of Target Chain>  (15) 
1M14,1M17,1XKK,1Z9I,2GS2,2GS6,2ITW,2ITX,2ITY,2J5E,2J5F,2J6M,2RF9,2RGP,3BEL,3GOP,3POZ,3VJO,3W2O,3W2P,3W2Q,3W2R,3W2S,3W32,3W33,4G5J,4I23,4JQ7,4JQ8,4JR3,4JRV,4LI5,4RJ4,4RJ5,4RJ6,4RJ7,4RJ8,4TKS,4WKQ,4WRG,4ZAU,5C8K,5C8M,5C8N,5CAL,5CAN,5CAO,5CAP,5CAQ,5CAS,5CAU,5CAV,5EDP,5EDQ,5EDR,5EM5,5EM6,5EM7,5EM8,5GNK,5HCX,5HCY,5HCZ,5HIB,5HIC,5UGB,5Y25,6D8E,6JZ0,6S89,6S8A,6VH4,6VHN,6VHP,7AEI,7AEM,7B85,7OXB,7SI1,7UKV,7ZYM,7ZYN,7ZYP,8A27,8A2A,8HY7

>  <UniProt (SwissProt) Recommended Name of Target Chain>  (15) 
Epidermal growth factor receptor

>  <UniProt (SwissProt) Entry Name of Target Chain>  (15) 
EGFR_HUMAN

>  <UniProt (SwissProt) Primary ID of Target Chain>  (15) 
P00533

>  <UniProt (SwissProt) Secondary ID(s) of Target Chain>  (15) 
O00688 O00732 P06268 Q14225 Q68GS5 Q92795 Q9BZS2 Q9GZX1 Q9H2C9 Q9H3C9 Q9UMD7 Q9UMD8 Q9UMG5

>  <UniProt (SwissProt) Alternative ID(s) of Target Chain>  (15) 


>  <UniProt (TrEMBL) Submitted Name of Target Chain>  (15) 


>  <UniProt (TrEMBL) Entry Name of Target Chain>  (15) 


>  <UniProt (TrEMBL) Primary ID of Target Chain>  (15) 


>  <UniProt (TrEMBL) Secondary ID(s) of Target Chain>  (15) 


>  <UniProt (TrEMBL) Alternative ID(s) of Target Chain>  (15) 


$$$$
Untitled Document-1
     RDKit          3D

 36 37  0  0  0  0  0  0  0  0999 V2000
   -1.3923   -0.3972   -0.5099 C   0  0  0  0  0  0  0  0  0  0  0  0
   -2.8085   -0.0958   -0.2096 C   0  0  0  0  0  0  0  0  0  0  0  0
   -3.2111    1.1698    0.2687 C   0  0  0  0  0  0  0  0  0  0  0  0
   -4.5638    1.4083    0.5556 C   0  0  0  0  0  0  0  0  0  0  0  0
   -5.5162    0.4082    0.3486 C   0  0  0  0  0  0  0  0  0  0  0  0
   -5.1261   -0.8352   -0.1508 C   0  0  0  0  0  0  0  0  0  0  0  0
   -3.7810   -1.0859   -0.4335 C   0  0  0  0  0  0  0  0  0  0  0  0
   -1.1124   -1.0070   -1.5776 O   0  0  0  0  0  0  0  0  0  0  0  0
   -0.3480   -0.0083    0.4009 N   0  0  0  0  0  0  0  0  0  0  0  0
    1.0470   -0.2845    0.1911 C   0  0  0  0  0  0  0  0  0  0  0  0
    1.4822   -1.5164   -0.3259 C   0  0  0  0  0  0  0  0  0  0  0  0
    2.8463   -1.7693   -0.4959 C   0  0  0  0  0  0  0  0  0  0  0  0
    3.8031   -0.8008   -0.1395 C   0  0  0  0  0  0  0  0  0  0  0  0
    3.3640    0.4194    0.4018 C   0  0  0  0  0  0  0  0  0  0  0  0
    1.9996    0.6699    0.5723 C   0  0  0  0  0  0  0  0  0  0  0  0
    5.2871   -1.0622   -0.3171 C   0  0  0  0  0  0  0  0  0  0  0  0
    5.6355   -1.2935   -1.7924 C   0  0  0  0  0  0  0  0  0  0  0  0
    5.7478   -2.2398    0.5498 C   0  0  0  0  0  0  0  0  0  0  0  0
   -2.2798    2.1955    0.4306 O   0  0  0  0  0  0  0  0  0  0  0  0
   -4.8796    2.3748    0.9276 H   0  0  0  0  0  0  0  0  0  0  0  0
   -6.5587    0.6001    0.5678 H   0  0  0  0  0  0  0  0  0  0  0  0
   -5.8665   -1.6071   -0.3169 H   0  0  0  0  0  0  0  0  0  0  0  0
   -3.4957   -2.0599   -0.8124 H   0  0  0  0  0  0  0  0  0  0  0  0
   -0.6018    0.5543    1.2434 H   0  0  0  0  0  0  0  0  0  0  0  0
    0.7735   -2.2956   -0.5718 H   0  0  0  0  0  0  0  0  0  0  0  0
    3.1539   -2.7262   -0.8972 H   0  0  0  0  0  0  0  0  0  0  0  0
    4.0768    1.1798    0.6954 H   0  0  0  0  0  0  0  0  0  0  0  0
    1.6819    1.6160    0.9928 H   0  0  0  0  0  0  0  0  0  0  0  0
    5.8624   -0.1692    0.0154 H   0  0  0  0  0  0  0  0  0  0  0  0
    6.7360   -1.3864   -1.9127 H   0  0  0  0  0  0  0  0  0  0  0  0
    5.2912   -0.4322   -2.4042 H   0  0  0  0  0  0  0  0  0  0  0  0
    5.1596   -2.2205   -2.1767 H   0  0  0  0  0  0  0  0  0  0  0  0
    5.4872   -2.0538    1.6138 H   0  0  0  0  0  0  0  0  0  0  0  0
    5.2711   -3.1885    0.2236 H   0  0  0  0  0  0  0  0  0  0  0  0
    6.8503   -2.3562    0.4780 H   0  0  0  0  0  0  0  0  0  0  0  0
   -2.5514    3.1128    0.7646 H   0  0  0  0  0  0  0  0  0  0  0  0
  1  2  1  0
  2  3  2  0
  3  4  1  0
  4  5  2  0
  5  6  1  0
  6  7  2  0
  2  7  1  0
  1  8  2  0
  1  9  1  0
 10 11  2  0
 11 12  1  0
 12 13  2  0
 13 14  1  0
 14 15  2  0
 10 15  1  0
 16 17  1  0
 16 18  1  0
 13 16  1  0
  9 10  1  0
  3 19  1  0
  4 20  1  0
  5 21  1  0
  6 22  1  0
  7 23  1  0
  9 24  1  0
 11 25  1  0
 12 26  1  0
 14 27  1  0
 15 28  1  0
 16 29  1  0
 17 30  1  0
 17 31  1  0
 17 32  1  0
 18 33  1  0
 18 34  1  0
 18 35  1  0
 19 36  1  0
M  END
>  <From>  (16) 
www.bindingDB.org

>  <BindingDB Reactant_set_id>  (16) 
408355

>  <Ligand InChI>  (16) 
InChI=1S/C16H17NO2/c1-11(2)12-7-9-13(10-8-12)17-16(19)14-5-3-4-6-15(14)18/h3-11,18H,1-2H3,(H,17,19)

>  <Ligand InChI Key>  (16) 
CVUDMYZNTCVWMV-UHFFFAOYSA-N

>  <BindingDB MonomerID>  (16) 
234310

>  <BindingDB Ligand Name>  (16) 
2-Hydroxy-N-(4-isopropylphenyl)benzamide (12)

>  <Target Name>  (16) 
Epidermal growth factor receptor [645-1186]

>  <Target Source Organism According to Curator or DataSource>  (16) 


>  <Ki (nM)>  (16) 


>  <IC50 (nM)>  (16) 
 29620

>  <Kd (nM)>  (16) 


>  <EC50 (nM)>  (16) 


>  <kon (M-1-s-1)>  (16) 


>  <koff (s-1)>  (16) 


>  <pH>  (16) 
7.4

>  <Temp C>  (16) 
25.00

>  <Curation/DataSource>  (16) 
Curated from the literature by BindingDB

>  <Article DOI>  (16) 
10.3109/14756361003671060

>  <BindingDB Entry DOI>  (16) 
10.7270/Q2XW4HPN

>  <PMID>  (16) 
20583855

>  <PubChem AID>  (16) 
aid1802974

>  <Patent Number>  (16) 


>  <Authors>  (16) 
Zhu, ZW; Shi, L; Ruan, XM; Yang, Y; Li, HQ; Xu, SP; Zhu, HL

>  <Institution>  (16) 
Nanjing University

>  <Link to Ligand in BindingDB>  (16) 
http://www.bindingdb.org/bind/chemsearch/marvin/MolStructure.jsp?monomerid=234310

>  <Link to Ligand-Target Pair in BindingDB>  (16) 
http://www.bindingdb.org/jsp/dbsearch/PrimarySearch_ki.jsp?energyterm=kJ/mole&tag=r21&monomerid=234310&enzyme=Epidermal+growth+factor+receptor+%5B645-1186%5D&column=ki&startPg=0&Increment=50&submit=Search

>  <Ligand HET ID in PDB>  (16) 


>  <PDB ID(s) for Ligand-Target Complex>  (16) 


>  <PubChem CID of Ligand>  (16) 
9795043

>  <PubChem SID of Ligand>  (16) 
340094299

>  <ChEBI ID of Ligand>  (16) 


>  <ChEMBL ID of Ligand>  (16) 


>  <DrugBank ID of Ligand>  (16) 


>  <IUPHAR_GRAC ID of Ligand>  (16) 


>  <KEGG ID of Ligand>  (16) 


>  <ZINC ID of Ligand>  (16) 


>  <Number of Protein Chains in Target (bigger than 1 implies a multichain complex)>  (16) 
1

>  <BindingDB Target Chain Sequence>  (16) 
SIATGMVGALLLLLVVALGIGLFMRRRHIVRKRTLRRLLQERELVEPLTPSGEAPNQALLRILKETEFKKIKVLGSGAFGTVYKGLWIPEGEKVKIPVAIKELREATSPKANKEILDEAYVMASVDNPHVCRLLGICLTSTVQLITQLMPFGCLLDYVREHKDNIGSQYLLNWCVQIAKGMNYLEDRRLVHRDLAARNVLVKTPQHVKITDFGLAKLLGAEEKEYHAEGGKVPIKWMALESILHRIYTHQSDVWSYGVTVWELMTFGSKPYDGIPASEISSILEKGERLPQPPICTIDVYMIMVKCWMIDADSRPKFRELIIEFSKMARDPQRYLVIQGDERMHLPSPTDSNFYRALMDEEDMDDVVDADEYLIPQQGFFSSPSTSRTPLLSSLSATSNNSTVACIDRNGLQSCPIKEDSFLQRYSSDPTGALTEDSIDDTFLPVPEYINQSVPKRPAGSVQNPVYHNQPLNPAPSRDPHYQDPHSTAVGNPEYLNTVQPTCVNSTFDSPAHWAQKGSHQISLDNPDYQQDFFPKEAKPNGI

>  <PDB ID(s) of Target Chain>  (16) 
1M14,1M17,1XKK,1Z9I,2GS2,2GS6,2ITW,2ITX,2ITY,2J5E,2J5F,2J6M,2RF9,2RGP,3BEL,3GOP,3POZ,3VJO,3W2O,3W2P,3W2Q,3W2R,3W2S,3W32,3W33,4G5J,4I23,4JQ7,4JQ8,4JR3,4JRV,4LI5,4RJ4,4RJ5,4RJ6,4RJ7,4RJ8,4TKS,4WKQ,4WRG,4ZAU,5C8K,5C8M,5C8N,5CAL,5CAN,5CAO,5CAP,5CAQ,5CAS,5CAU,5CAV,5EDP,5EDQ,5EDR,5EM5,5EM6,5EM7,5EM8,5GNK,5HCX,5HCY,5HCZ,5HIB,5HIC,5UGB,5Y25,6D8E,6JZ0,6S89,6S8A,6VH4,6VHN,6VHP,7AEI,7AEM,7B85,7OXB,7SI1,7UKV,7ZYM,7ZYN,7ZYP,8A27,8A2A,8HY7

>  <UniProt (SwissProt) Recommended Name of Target Chain>  (16) 
Epidermal growth factor receptor

>  <UniProt (SwissProt) Entry Name of Target Chain>  (16) 
EGFR_HUMAN

>  <UniProt (SwissProt) Primary ID of Target Chain>  (16) 
P00533

>  <UniProt (SwissProt) Secondary ID(s) of Target Chain>  (16) 
O00688 O00732 P06268 Q14225 Q68GS5 Q92795 Q9BZS2 Q9GZX1 Q9H2C9 Q9H3C9 Q9UMD7 Q9UMD8 Q9UMG5

>  <UniProt (SwissProt) Alternative ID(s) of Target Chain>  (16) 


>  <UniProt (TrEMBL) Submitted Name of Target Chain>  (16) 


>  <UniProt (TrEMBL) Entry Name of Target Chain>  (16) 


>  <UniProt (TrEMBL) Primary ID of Target Chain>  (16) 


>  <UniProt (TrEMBL) Secondary ID(s) of Target Chain>  (16) 


>  <UniProt (TrEMBL) Alternative ID(s) of Target Chain>  (16) 


$$$$
Untitled Document-1
     RDKit          3D

 30 31  0  0  0  0  0  0  0  0999 V2000
   -1.4095   -0.5985   -0.0935 C   0  0  0  0  0  0  0  0  0  0  0  0
   -2.8109   -0.1280   -0.1418 C   0  0  0  0  0  0  0  0  0  0  0  0
   -3.2091    1.0731    0.4815 C   0  0  0  0  0  0  0  0  0  0  0  0
   -4.5450    1.4934    0.3987 C   0  0  0  0  0  0  0  0  0  0  0  0
   -5.4933    0.7240   -0.2902 C   0  0  0  0  0  0  0  0  0  0  0  0
   -5.1045   -0.4917   -0.8679 C   0  0  0  0  0  0  0  0  0  0  0  0
   -3.7747   -0.9130   -0.7958 C   0  0  0  0  0  0  0  0  0  0  0  0
   -1.1817   -1.8193    0.1267 O   0  0  0  0  0  0  0  0  0  0  0  0
   -0.3191    0.3161   -0.3026 N   0  0  0  0  0  0  0  0  0  0  0  0
   -6.9286    1.1577   -0.3367 C   0  0  0  0  0  0  0  0  0  0  0  0
   -2.2908    1.8320    1.2074 O   0  0  0  0  0  0  0  0  0  0  0  0
    1.0642   -0.0693   -0.2367 C   0  0  0  0  0  0  0  0  0  0  0  0
    1.9964    0.7503    0.4300 C   0  0  0  0  0  0  0  0  0  0  0  0
    3.3482    0.3872    0.4682 C   0  0  0  0  0  0  0  0  0  0  0  0
    3.7826   -0.7809   -0.1649 C   0  0  0  0  0  0  0  0  0  0  0  0
    2.8661   -1.5881   -0.8437 C   0  0  0  0  0  0  0  0  0  0  0  0
    1.5152   -1.2331   -0.8852 C   0  0  0  0  0  0  0  0  0  0  0  0
    5.4780   -1.2282   -0.1151 Cl  0  0  0  0  0  0  0  0  0  0  0  0
    1.4904    2.2184    1.2565 Cl  0  0  0  0  0  0  0  0  0  0  0  0
   -4.8461    2.4151    0.8819 H   0  0  0  0  0  0  0  0  0  0  0  0
   -5.8303   -1.1128   -1.3783 H   0  0  0  0  0  0  0  0  0  0  0  0
   -3.4942   -1.8489   -1.2638 H   0  0  0  0  0  0  0  0  0  0  0  0
   -0.5342    1.3216   -0.4837 H   0  0  0  0  0  0  0  0  0  0  0  0
   -7.0030    2.2661   -0.3312 H   0  0  0  0  0  0  0  0  0  0  0  0
   -7.4650    0.7542    0.5473 H   0  0  0  0  0  0  0  0  0  0  0  0
   -7.4209    0.7857   -1.2604 H   0  0  0  0  0  0  0  0  0  0  0  0
   -2.5586    2.6933    1.6693 H   0  0  0  0  0  0  0  0  0  0  0  0
    4.0608    1.0130    0.9908 H   0  0  0  0  0  0  0  0  0  0  0  0
    3.2004   -2.4866   -1.3467 H   0  0  0  0  0  0  0  0  0  0  0  0
    0.8277   -1.8539   -1.4444 H   0  0  0  0  0  0  0  0  0  0  0  0
  1  2  1  0
  2  3  2  0
  3  4  1  0
  4  5  2  0
  5  6  1  0
  6  7  2  0
  2  7  1  0
  1  8  2  0
  1  9  1  0
  5 10  1  0
  3 11  1  0
 12 13  2  0
 13 14  1  0
 14 15  2  0
 15 16  1  0
 16 17  2  0
 12 17  1  0
 15 18  1  0
 13 19  1  0
  9 12  1  0
  4 20  1  0
  6 21  1  0
  7 22  1  0
  9 23  1  0
 10 24  1  0
 10 25  1  0
 10 26  1  0
 11 27  1  0
 14 28  1  0
 16 29  1  0
 17 30  1  0
M  END
>  <From>  (17) 
www.bindingDB.org

>  <BindingDB Reactant_set_id>  (17) 
408361

>  <Ligand InChI>  (17) 
InChI=1S/C14H11Cl2NO2/c1-8-2-4-10(13(18)6-8)14(19)17-12-5-3-9(15)7-11(12)16/h2-7,18H,1H3,(H,17,19)

>  <Ligand InChI Key>  (17) 
ZSHHCMUVJYRJCD-UHFFFAOYSA-N

>  <BindingDB MonomerID>  (17) 
234316

>  <BindingDB Ligand Name>  (17) 
N-(2,4-dichlorophenyl)-2-hydroxy-4-methylbenzamide (18)

>  <Target Name>  (17) 
Epidermal growth factor receptor [645-1186]

>  <Target Source Organism According to Curator or DataSource>  (17) 


>  <Ki (nM)>  (17) 


>  <IC50 (nM)>  (17) 
 31090

>  <Kd (nM)>  (17) 


>  <EC50 (nM)>  (17) 


>  <kon (M-1-s-1)>  (17) 


>  <koff (s-1)>  (17) 


>  <pH>  (17) 
7.4

>  <Temp C>  (17) 
25.00

>  <Curation/DataSource>  (17) 
Curated from the literature by BindingDB

>  <Article DOI>  (17) 
10.3109/14756361003671060

>  <BindingDB Entry DOI>  (17) 
10.7270/Q2XW4HPN

>  <PMID>  (17) 
20583855

>  <PubChem AID>  (17) 
aid1802974

>  <Patent Number>  (17) 


>  <Authors>  (17) 
Zhu, ZW; Shi, L; Ruan, XM; Yang, Y; Li, HQ; Xu, SP; Zhu, HL

>  <Institution>  (17) 
Nanjing University

>  <Link to Ligand in BindingDB>  (17) 
http://www.bindingdb.org/bind/chemsearch/marvin/MolStructure.jsp?monomerid=234316

>  <Link to Ligand-Target Pair in BindingDB>  (17) 
http://www.bindingdb.org/jsp/dbsearch/PrimarySearch_ki.jsp?energyterm=kJ/mole&tag=r21&monomerid=234316&enzyme=Epidermal+growth+factor+receptor+%5B645-1186%5D&column=ki&startPg=0&Increment=50&submit=Search

>  <Ligand HET ID in PDB>  (17) 


>  <PDB ID(s) for Ligand-Target Complex>  (17) 


>  <PubChem CID of Ligand>  (17) 
29560245

>  <PubChem SID of Ligand>  (17) 
340094305

>  <ChEBI ID of Ligand>  (17) 


>  <ChEMBL ID of Ligand>  (17) 


>  <DrugBank ID of Ligand>  (17) 


>  <IUPHAR_GRAC ID of Ligand>  (17) 


>  <KEGG ID of Ligand>  (17) 


>  <ZINC ID of Ligand>  (17) 


>  <Number of Protein Chains in Target (bigger than 1 implies a multichain complex)>  (17) 
1

>  <BindingDB Target Chain Sequence>  (17) 
SIATGMVGALLLLLVVALGIGLFMRRRHIVRKRTLRRLLQERELVEPLTPSGEAPNQALLRILKETEFKKIKVLGSGAFGTVYKGLWIPEGEKVKIPVAIKELREATSPKANKEILDEAYVMASVDNPHVCRLLGICLTSTVQLITQLMPFGCLLDYVREHKDNIGSQYLLNWCVQIAKGMNYLEDRRLVHRDLAARNVLVKTPQHVKITDFGLAKLLGAEEKEYHAEGGKVPIKWMALESILHRIYTHQSDVWSYGVTVWELMTFGSKPYDGIPASEISSILEKGERLPQPPICTIDVYMIMVKCWMIDADSRPKFRELIIEFSKMARDPQRYLVIQGDERMHLPSPTDSNFYRALMDEEDMDDVVDADEYLIPQQGFFSSPSTSRTPLLSSLSATSNNSTVACIDRNGLQSCPIKEDSFLQRYSSDPTGALTEDSIDDTFLPVPEYINQSVPKRPAGSVQNPVYHNQPLNPAPSRDPHYQDPHSTAVGNPEYLNTVQPTCVNSTFDSPAHWAQKGSHQISLDNPDYQQDFFPKEAKPNGI

>  <PDB ID(s) of Target Chain>  (17) 
1M14,1M17,1XKK,1Z9I,2GS2,2GS6,2ITW,2ITX,2ITY,2J5E,2J5F,2J6M,2RF9,2RGP,3BEL,3GOP,3POZ,3VJO,3W2O,3W2P,3W2Q,3W2R,3W2S,3W32,3W33,4G5J,4I23,4JQ7,4JQ8,4JR3,4JRV,4LI5,4RJ4,4RJ5,4RJ6,4RJ7,4RJ8,4TKS,4WKQ,4WRG,4ZAU,5C8K,5C8M,5C8N,5CAL,5CAN,5CAO,5CAP,5CAQ,5CAS,5CAU,5CAV,5EDP,5EDQ,5EDR,5EM5,5EM6,5EM7,5EM8,5GNK,5HCX,5HCY,5HCZ,5HIB,5HIC,5UGB,5Y25,6D8E,6JZ0,6S89,6S8A,6VH4,6VHN,6VHP,7AEI,7AEM,7B85,7OXB,7SI1,7UKV,7ZYM,7ZYN,7ZYP,8A27,8A2A,8HY7

>  <UniProt (SwissProt) Recommended Name of Target Chain>  (17) 
Epidermal growth factor receptor

>  <UniProt (SwissProt) Entry Name of Target Chain>  (17) 
EGFR_HUMAN

>  <UniProt (SwissProt) Primary ID of Target Chain>  (17) 
P00533

>  <UniProt (SwissProt) Secondary ID(s) of Target Chain>  (17) 
O00688 O00732 P06268 Q14225 Q68GS5 Q92795 Q9BZS2 Q9GZX1 Q9H2C9 Q9H3C9 Q9UMD7 Q9UMD8 Q9UMG5

>  <UniProt (SwissProt) Alternative ID(s) of Target Chain>  (17) 


>  <UniProt (TrEMBL) Submitted Name of Target Chain>  (17) 


>  <UniProt (TrEMBL) Entry Name of Target Chain>  (17) 


>  <UniProt (TrEMBL) Primary ID of Target Chain>  (17) 


>  <UniProt (TrEMBL) Secondary ID(s) of Target Chain>  (17) 


>  <UniProt (TrEMBL) Alternative ID(s) of Target Chain>  (17) 


$$$$
Untitled Document-1
     RDKit          3D

 33 34  0  0  0  0  0  0  0  0999 V2000
   -1.3911   -0.3962   -0.5103 C   0  0  0  0  0  0  0  0  0  0  0  0
   -2.8075   -0.0959   -0.2097 C   0  0  0  0  0  0  0  0  0  0  0  0
   -3.2104    1.1687    0.2674 C   0  0  0  0  0  0  0  0  0  0  0  0
   -4.5624    1.4079    0.5561 C   0  0  0  0  0  0  0  0  0  0  0  0
   -5.5212    0.4032    0.3640 C   0  0  0  0  0  0  0  0  0  0  0  0
   -5.1245   -0.8363   -0.1549 C   0  0  0  0  0  0  0  0  0  0  0  0
   -3.7793   -1.0840   -0.4377 C   0  0  0  0  0  0  0  0  0  0  0  0
   -1.1106   -1.0042   -1.5788 O   0  0  0  0  0  0  0  0  0  0  0  0
   -0.3473   -0.0080    0.4013 N   0  0  0  0  0  0  0  0  0  0  0  0
    1.0478   -0.2847    0.1928 C   0  0  0  0  0  0  0  0  0  0  0  0
    2.0006    0.6721    0.5714 C   0  0  0  0  0  0  0  0  0  0  0  0
    3.7980   -0.8065   -0.1224 C   0  0  0  0  0  0  0  0  0  0  0  0
    1.4834   -1.5169   -0.3260 C   0  0  0  0  0  0  0  0  0  0  0  0
    3.3652    0.4203    0.4017 C   0  0  0  0  0  0  0  0  0  0  0  0
    2.8483   -1.7693   -0.4947 C   0  0  0  0  0  0  0  0  0  0  0  0
    5.2599   -1.0626   -0.3399 C   0  0  0  0  0  0  0  0  0  0  0  0
   -6.9707    0.6806    0.6329 C   0  0  0  0  0  0  0  0  0  0  0  0
   -2.2791    2.1952    0.4250 O   0  0  0  0  0  0  0  0  0  0  0  0
   -4.8670    2.3820    0.9194 H   0  0  0  0  0  0  0  0  0  0  0  0
   -5.8564   -1.6136   -0.3375 H   0  0  0  0  0  0  0  0  0  0  0  0
   -3.4936   -2.0552   -0.8235 H   0  0  0  0  0  0  0  0  0  0  0  0
   -0.6015    0.5548    1.2435 H   0  0  0  0  0  0  0  0  0  0  0  0
    1.6828    1.6209    0.9855 H   0  0  0  0  0  0  0  0  0  0  0  0
    0.7749   -2.2945   -0.5774 H   0  0  0  0  0  0  0  0  0  0  0  0
    4.0836    1.1810    0.6816 H   0  0  0  0  0  0  0  0  0  0  0  0
    3.1645   -2.7200   -0.9061 H   0  0  0  0  0  0  0  0  0  0  0  0
    5.4859   -2.1464   -0.2482 H   0  0  0  0  0  0  0  0  0  0  0  0
    5.5479   -0.7171   -1.3546 H   0  0  0  0  0  0  0  0  0  0  0  0
    5.8693   -0.5203    0.4142 H   0  0  0  0  0  0  0  0  0  0  0  0
   -7.4427    1.0968   -0.2815 H   0  0  0  0  0  0  0  0  0  0  0  0
   -7.0822    1.4106    1.4629 H   0  0  0  0  0  0  0  0  0  0  0  0
   -7.5012   -0.2514    0.9226 H   0  0  0  0  0  0  0  0  0  0  0  0
   -2.5498    3.1132    0.7580 H   0  0  0  0  0  0  0  0  0  0  0  0
  1  2  1  0
  2  3  2  0
  3  4  1  0
  4  5  2  0
  5  6  1  0
  6  7  2  0
  2  7  1  0
  1  8  2  0
  1  9  1  0
 10 11  2  0
 10 13  1  0
 11 14  1  0
 12 14  2  0
 12 15  1  0
 13 15  2  0
 12 16  1  0
  9 10  1  0
  5 17  1  0
  3 18  1  0
  4 19  1  0
  6 20  1  0
  7 21  1  0
  9 22  1  0
 11 23  1  0
 13 24  1  0
 14 25  1  0
 15 26  1  0
 16 27  1  0
 16 28  1  0
 16 29  1  0
 17 30  1  0
 17 31  1  0
 17 32  1  0
 18 33  1  0
M  END
>  <From>  (18) 
www.bindingDB.org

>  <BindingDB Reactant_set_id>  (18) 
408362

>  <Ligand InChI>  (18) 
InChI=1S/C15H15NO2/c1-10-3-6-12(7-4-10)16-15(18)13-8-5-11(2)9-14(13)17/h3-9,17H,1-2H3,(H,16,18)

>  <Ligand InChI Key>  (18) 
RQABWRMPSFQPTI-UHFFFAOYSA-N

>  <BindingDB MonomerID>  (18) 
234317

>  <BindingDB Ligand Name>  (18) 
2-Hydroxy-4-methyl-N-p-tolylbenzamide (19)

>  <Target Name>  (18) 
Epidermal growth factor receptor [645-1186]

>  <Target Source Organism According to Curator or DataSource>  (18) 


>  <Ki (nM)>  (18) 


>  <IC50 (nM)>  (18) 
 34670

>  <Kd (nM)>  (18) 


>  <EC50 (nM)>  (18) 


>  <kon (M-1-s-1)>  (18) 


>  <koff (s-1)>  (18) 


>  <pH>  (18) 
7.4

>  <Temp C>  (18) 
25.00

>  <Curation/DataSource>  (18) 
Curated from the literature by BindingDB

>  <Article DOI>  (18) 
10.3109/14756361003671060

>  <BindingDB Entry DOI>  (18) 
10.7270/Q2XW4HPN

>  <PMID>  (18) 
20583855

>  <PubChem AID>  (18) 
aid1802974

>  <Patent Number>  (18) 


>  <Authors>  (18) 
Zhu, ZW; Shi, L; Ruan, XM; Yang, Y; Li, HQ; Xu, SP; Zhu, HL

>  <Institution>  (18) 
Nanjing University

>  <Link to Ligand in BindingDB>  (18) 
http://www.bindingdb.org/bind/chemsearch/marvin/MolStructure.jsp?monomerid=234317

>  <Link to Ligand-Target Pair in BindingDB>  (18) 
http://www.bindingdb.org/jsp/dbsearch/PrimarySearch_ki.jsp?energyterm=kJ/mole&tag=r21&monomerid=234317&enzyme=Epidermal+growth+factor+receptor+%5B645-1186%5D&column=ki&startPg=0&Increment=50&submit=Search

>  <Ligand HET ID in PDB>  (18) 


>  <PDB ID(s) for Ligand-Target Complex>  (18) 


>  <PubChem CID of Ligand>  (18) 
5274033

>  <PubChem SID of Ligand>  (18) 
340094306

>  <ChEBI ID of Ligand>  (18) 


>  <ChEMBL ID of Ligand>  (18) 


>  <DrugBank ID of Ligand>  (18) 


>  <IUPHAR_GRAC ID of Ligand>  (18) 


>  <KEGG ID of Ligand>  (18) 


>  <ZINC ID of Ligand>  (18) 


>  <Number of Protein Chains in Target (bigger than 1 implies a multichain complex)>  (18) 
1

>  <BindingDB Target Chain Sequence>  (18) 
SIATGMVGALLLLLVVALGIGLFMRRRHIVRKRTLRRLLQERELVEPLTPSGEAPNQALLRILKETEFKKIKVLGSGAFGTVYKGLWIPEGEKVKIPVAIKELREATSPKANKEILDEAYVMASVDNPHVCRLLGICLTSTVQLITQLMPFGCLLDYVREHKDNIGSQYLLNWCVQIAKGMNYLEDRRLVHRDLAARNVLVKTPQHVKITDFGLAKLLGAEEKEYHAEGGKVPIKWMALESILHRIYTHQSDVWSYGVTVWELMTFGSKPYDGIPASEISSILEKGERLPQPPICTIDVYMIMVKCWMIDADSRPKFRELIIEFSKMARDPQRYLVIQGDERMHLPSPTDSNFYRALMDEEDMDDVVDADEYLIPQQGFFSSPSTSRTPLLSSLSATSNNSTVACIDRNGLQSCPIKEDSFLQRYSSDPTGALTEDSIDDTFLPVPEYINQSVPKRPAGSVQNPVYHNQPLNPAPSRDPHYQDPHSTAVGNPEYLNTVQPTCVNSTFDSPAHWAQKGSHQISLDNPDYQQDFFPKEAKPNGI

>  <PDB ID(s) of Target Chain>  (18) 
1M14,1M17,1XKK,1Z9I,2GS2,2GS6,2ITW,2ITX,2ITY,2J5E,2J5F,2J6M,2RF9,2RGP,3BEL,3GOP,3POZ,3VJO,3W2O,3W2P,3W2Q,3W2R,3W2S,3W32,3W33,4G5J,4I23,4JQ7,4JQ8,4JR3,4JRV,4LI5,4RJ4,4RJ5,4RJ6,4RJ7,4RJ8,4TKS,4WKQ,4WRG,4ZAU,5C8K,5C8M,5C8N,5CAL,5CAN,5CAO,5CAP,5CAQ,5CAS,5CAU,5CAV,5EDP,5EDQ,5EDR,5EM5,5EM6,5EM7,5EM8,5GNK,5HCX,5HCY,5HCZ,5HIB,5HIC,5UGB,5Y25,6D8E,6JZ0,6S89,6S8A,6VH4,6VHN,6VHP,7AEI,7AEM,7B85,7OXB,7SI1,7UKV,7ZYM,7ZYN,7ZYP,8A27,8A2A,8HY7

>  <UniProt (SwissProt) Recommended Name of Target Chain>  (18) 
Epidermal growth factor receptor

>  <UniProt (SwissProt) Entry Name of Target Chain>  (18) 
EGFR_HUMAN

>  <UniProt (SwissProt) Primary ID of Target Chain>  (18) 
P00533

>  <UniProt (SwissProt) Secondary ID(s) of Target Chain>  (18) 
O00688 O00732 P06268 Q14225 Q68GS5 Q92795 Q9BZS2 Q9GZX1 Q9H2C9 Q9H3C9 Q9UMD7 Q9UMD8 Q9UMG5

>  <UniProt (SwissProt) Alternative ID(s) of Target Chain>  (18) 


>  <UniProt (TrEMBL) Submitted Name of Target Chain>  (18) 


>  <UniProt (TrEMBL) Entry Name of Target Chain>  (18) 


>  <UniProt (TrEMBL) Primary ID of Target Chain>  (18) 


>  <UniProt (TrEMBL) Secondary ID(s) of Target Chain>  (18) 


>  <UniProt (TrEMBL) Alternative ID(s) of Target Chain>  (18) 


$$$$
Untitled Document-1
     RDKit          3D

 31 32  0  0  0  0  0  0  0  0999 V2000
   -1.4112   -0.6048   -0.0727 C   0  0  0  0  0  0  0  0  0  0  0  0
   -2.8085   -0.1253   -0.1373 C   0  0  0  0  0  0  0  0  0  0  0  0
   -3.2161    1.0591    0.5139 C   0  0  0  0  0  0  0  0  0  0  0  0
   -4.5490    1.4861    0.4139 C   0  0  0  0  0  0  0  0  0  0  0  0
   -5.4789    0.7338   -0.3068 C   0  0  0  0  0  0  0  0  0  0  0  0
   -5.0864   -0.4524   -0.9286 C   0  0  0  0  0  0  0  0  0  0  0  0
   -3.7602   -0.8835   -0.8412 C   0  0  0  0  0  0  0  0  0  0  0  0
   -1.1965   -1.8283    0.1445 O   0  0  0  0  0  0  0  0  0  0  0  0
   -0.3116    0.3047   -0.2598 N   0  0  0  0  0  0  0  0  0  0  0  0
    1.0710   -0.0879   -0.2346 C   0  0  0  0  0  0  0  0  0  0  0  0
    2.0174    0.7712    0.3412 C   0  0  0  0  0  0  0  0  0  0  0  0
    3.3713    0.4250    0.3581 C   0  0  0  0  0  0  0  0  0  0  0  0
    3.8056   -0.7753   -0.2151 C   0  0  0  0  0  0  0  0  0  0  0  0
    2.8616   -1.6288   -0.8168 C   0  0  0  0  0  0  0  0  0  0  0  0
    1.5068   -1.2831   -0.8326 C   0  0  0  0  0  0  0  0  0  0  0  0
    5.1746   -1.0785   -0.1711 O   0  0  0  0  0  0  0  0  0  0  0  0
    5.7537   -2.2608   -0.7137 C   0  0  0  0  0  0  0  0  0  0  0  0
   -2.3117    1.7933    1.2811 O   0  0  0  0  0  0  0  0  0  0  0  0
   -4.8680    2.3960    0.9062 H   0  0  0  0  0  0  0  0  0  0  0  0
   -6.5066    1.0664   -0.3765 H   0  0  0  0  0  0  0  0  0  0  0  0
   -5.8099   -1.0378   -1.4813 H   0  0  0  0  0  0  0  0  0  0  0  0
   -3.4720   -1.8023   -1.3375 H   0  0  0  0  0  0  0  0  0  0  0  0
   -0.5168    1.3228   -0.3702 H   0  0  0  0  0  0  0  0  0  0  0  0
    1.7021    1.7059    0.7879 H   0  0  0  0  0  0  0  0  0  0  0  0
    4.0879    1.0943    0.8173 H   0  0  0  0  0  0  0  0  0  0  0  0
    3.1652   -2.5559   -1.2835 H   0  0  0  0  0  0  0  0  0  0  0  0
    0.8082   -1.9368   -1.3372 H   0  0  0  0  0  0  0  0  0  0  0  0
    6.8484   -2.2429   -0.5357 H   0  0  0  0  0  0  0  0  0  0  0  0
    5.5721   -2.3072   -1.8083 H   0  0  0  0  0  0  0  0  0  0  0  0
    5.3271   -3.1577   -0.2168 H   0  0  0  0  0  0  0  0  0  0  0  0
   -2.5879    2.6411    1.7625 H   0  0  0  0  0  0  0  0  0  0  0  0
  1  2  1  0
  2  3  2  0
  3  4  1  0
  4  5  2  0
  5  6  1  0
  6  7  2  0
  2  7  1  0
  1  8  2  0
  1  9  1  0
 10 11  2  0
 11 12  1  0
 12 13  2  0
 13 14  1  0
 14 15  2  0
 10 15  1  0
 16 17  1  0
 13 16  1  0
  9 10  1  0
  3 18  1  0
  4 19  1  0
  5 20  1  0
  6 21  1  0
  7 22  1  0
  9 23  1  0
 11 24  1  0
 12 25  1  0
 14 26  1  0
 15 27  1  0
 17 28  1  0
 17 29  1  0
 17 30  1  0
 18 31  1  0
M  END
>  <From>  (19) 
www.bindingDB.org

>  <BindingDB Reactant_set_id>  (19) 
408354

>  <Ligand InChI>  (19) 
InChI=1S/C14H13NO3/c1-18-11-8-6-10(7-9-11)15-14(17)12-4-2-3-5-13(12)16/h2-9,16H,1H3,(H,15,17)

>  <Ligand InChI Key>  (19) 
SZEPRRFZUWYXNA-UHFFFAOYSA-N

>  <BindingDB MonomerID>  (19) 
234309

>  <BindingDB Ligand Name>  (19) 
2-Hydroxy-N-(4-methoxyphenyl)benzamide (11)

>  <Target Name>  (19) 
Epidermal growth factor receptor [645-1186]

>  <Target Source Organism According to Curator or DataSource>  (19) 


>  <Ki (nM)>  (19) 


>  <IC50 (nM)>  (19) 
 39980

>  <Kd (nM)>  (19) 


>  <EC50 (nM)>  (19) 


>  <kon (M-1-s-1)>  (19) 


>  <koff (s-1)>  (19) 


>  <pH>  (19) 
7.4

>  <Temp C>  (19) 
25.00

>  <Curation/DataSource>  (19) 
Curated from the literature by BindingDB

>  <Article DOI>  (19) 
10.3109/14756361003671060

>  <BindingDB Entry DOI>  (19) 
10.7270/Q2XW4HPN

>  <PMID>  (19) 
20583855

>  <PubChem AID>  (19) 
aid1802974

>  <Patent Number>  (19) 


>  <Authors>  (19) 
Zhu, ZW; Shi, L; Ruan, XM; Yang, Y; Li, HQ; Xu, SP; Zhu, HL

>  <Institution>  (19) 
Nanjing University

>  <Link to Ligand in BindingDB>  (19) 
http://www.bindingdb.org/bind/chemsearch/marvin/MolStructure.jsp?monomerid=234309

>  <Link to Ligand-Target Pair in BindingDB>  (19) 
http://www.bindingdb.org/jsp/dbsearch/PrimarySearch_ki.jsp?energyterm=kJ/mole&tag=r21&monomerid=234309&enzyme=Epidermal+growth+factor+receptor+%5B645-1186%5D&column=ki&startPg=0&Increment=50&submit=Search

>  <Ligand HET ID in PDB>  (19) 


>  <PDB ID(s) for Ligand-Target Complex>  (19) 


>  <PubChem CID of Ligand>  (19) 
478806

>  <PubChem SID of Ligand>  (19) 
340094298

>  <ChEBI ID of Ligand>  (19) 


>  <ChEMBL ID of Ligand>  (19) 


>  <DrugBank ID of Ligand>  (19) 


>  <IUPHAR_GRAC ID of Ligand>  (19) 


>  <KEGG ID of Ligand>  (19) 


>  <ZINC ID of Ligand>  (19) 


>  <Number of Protein Chains in Target (bigger than 1 implies a multichain complex)>  (19) 
1

>  <BindingDB Target Chain Sequence>  (19) 
SIATGMVGALLLLLVVALGIGLFMRRRHIVRKRTLRRLLQERELVEPLTPSGEAPNQALLRILKETEFKKIKVLGSGAFGTVYKGLWIPEGEKVKIPVAIKELREATSPKANKEILDEAYVMASVDNPHVCRLLGICLTSTVQLITQLMPFGCLLDYVREHKDNIGSQYLLNWCVQIAKGMNYLEDRRLVHRDLAARNVLVKTPQHVKITDFGLAKLLGAEEKEYHAEGGKVPIKWMALESILHRIYTHQSDVWSYGVTVWELMTFGSKPYDGIPASEISSILEKGERLPQPPICTIDVYMIMVKCWMIDADSRPKFRELIIEFSKMARDPQRYLVIQGDERMHLPSPTDSNFYRALMDEEDMDDVVDADEYLIPQQGFFSSPSTSRTPLLSSLSATSNNSTVACIDRNGLQSCPIKEDSFLQRYSSDPTGALTEDSIDDTFLPVPEYINQSVPKRPAGSVQNPVYHNQPLNPAPSRDPHYQDPHSTAVGNPEYLNTVQPTCVNSTFDSPAHWAQKGSHQISLDNPDYQQDFFPKEAKPNGI

>  <PDB ID(s) of Target Chain>  (19) 
1M14,1M17,1XKK,1Z9I,2GS2,2GS6,2ITW,2ITX,2ITY,2J5E,2J5F,2J6M,2RF9,2RGP,3BEL,3GOP,3POZ,3VJO,3W2O,3W2P,3W2Q,3W2R,3W2S,3W32,3W33,4G5J,4I23,4JQ7,4JQ8,4JR3,4JRV,4LI5,4RJ4,4RJ5,4RJ6,4RJ7,4RJ8,4TKS,4WKQ,4WRG,4ZAU,5C8K,5C8M,5C8N,5CAL,5CAN,5CAO,5CAP,5CAQ,5CAS,5CAU,5CAV,5EDP,5EDQ,5EDR,5EM5,5EM6,5EM7,5EM8,5GNK,5HCX,5HCY,5HCZ,5HIB,5HIC,5UGB,5Y25,6D8E,6JZ0,6S89,6S8A,6VH4,6VHN,6VHP,7AEI,7AEM,7B85,7OXB,7SI1,7UKV,7ZYM,7ZYN,7ZYP,8A27,8A2A,8HY7

>  <UniProt (SwissProt) Recommended Name of Target Chain>  (19) 
Epidermal growth factor receptor

>  <UniProt (SwissProt) Entry Name of Target Chain>  (19) 
EGFR_HUMAN

>  <UniProt (SwissProt) Primary ID of Target Chain>  (19) 
P00533

>  <UniProt (SwissProt) Secondary ID(s) of Target Chain>  (19) 
O00688 O00732 P06268 Q14225 Q68GS5 Q92795 Q9BZS2 Q9GZX1 Q9H2C9 Q9H3C9 Q9UMD7 Q9UMD8 Q9UMG5

>  <UniProt (SwissProt) Alternative ID(s) of Target Chain>  (19) 


>  <UniProt (TrEMBL) Submitted Name of Target Chain>  (19) 


>  <UniProt (TrEMBL) Entry Name of Target Chain>  (19) 


>  <UniProt (TrEMBL) Primary ID of Target Chain>  (19) 


>  <UniProt (TrEMBL) Secondary ID(s) of Target Chain>  (19) 


>  <UniProt (TrEMBL) Alternative ID(s) of Target Chain>  (19) 


$$$$
Untitled Document-1
     RDKit          3D

 30 31  0  0  0  0  0  0  0  0999 V2000
   -0.3563    0.0798    0.5071 C   0  0  0  0  0  0  0  0  0  0  0  0
    1.0727   -0.2023    0.2304 C   0  0  0  0  0  0  0  0  0  0  0  0
    2.0700    0.7390    0.5625 C   0  0  0  0  0  0  0  0  0  0  0  0
    3.4192    0.4506    0.3093 C   0  0  0  0  0  0  0  0  0  0  0  0
    3.7912   -0.7740   -0.2617 C   0  0  0  0  0  0  0  0  0  0  0  0
    2.8000   -1.7025   -0.6039 C   0  0  0  0  0  0  0  0  0  0  0  0
    1.4545   -1.4241   -0.3523 C   0  0  0  0  0  0  0  0  0  0  0  0
   -0.6669    0.6963    1.5626 O   0  0  0  0  0  0  0  0  0  0  0  0
   -1.3846   -0.3634   -0.3981 N   0  0  0  0  0  0  0  0  0  0  0  0
    5.2320   -1.0593   -0.5671 C   0  0  0  0  0  0  0  0  0  0  0  0
    1.7207    1.9661    1.1274 O   0  0  0  0  0  0  0  0  0  0  0  0
   -2.7776   -0.0395   -0.2507 C   0  0  0  0  0  0  0  0  0  0  0  0
   -3.7461   -0.9888   -0.6133 C   0  0  0  0  0  0  0  0  0  0  0  0
   -5.1075   -0.6896   -0.5024 C   0  0  0  0  0  0  0  0  0  0  0  0
   -5.5133    0.5666   -0.0439 C   0  0  0  0  0  0  0  0  0  0  0  0
   -4.5573    1.5277    0.2957 C   0  0  0  0  0  0  0  0  0  0  0  0
   -3.1947    1.2315    0.1870 C   0  0  0  0  0  0  0  0  0  0  0  0
   -6.8336    0.8566    0.0603 F   0  0  0  0  0  0  0  0  0  0  0  0
    4.1778    1.1837    0.5558 H   0  0  0  0  0  0  0  0  0  0  0  0
    3.0691   -2.6482   -1.0584 H   0  0  0  0  0  0  0  0  0  0  0  0
    0.7181   -2.1797   -0.5924 H   0  0  0  0  0  0  0  0  0  0  0  0
   -1.1253   -0.9993   -1.1846 H   0  0  0  0  0  0  0  0  0  0  0  0
    5.4342   -2.1507   -0.5220 H   0  0  0  0  0  0  0  0  0  0  0  0
    5.4741   -0.6879   -1.5847 H   0  0  0  0  0  0  0  0  0  0  0  0
    5.8953   -0.5574    0.1693 H   0  0  0  0  0  0  0  0  0  0  0  0
    2.4195    2.6591    1.3690 H   0  0  0  0  0  0  0  0  0  0  0  0
   -3.4438   -1.9648   -0.9720 H   0  0  0  0  0  0  0  0  0  0  0  0
   -5.8470   -1.4317   -0.7746 H   0  0  0  0  0  0  0  0  0  0  0  0
   -4.8710    2.5068    0.6343 H   0  0  0  0  0  0  0  0  0  0  0  0
   -2.4730    2.0035    0.4178 H   0  0  0  0  0  0  0  0  0  0  0  0
  1  2  1  0
  2  3  2  0
  3  4  1  0
  4  5  2  0
  5  6  1  0
  6  7  2  0
  2  7  1  0
  1  8  2  0
  1  9  1  0
  5 10  1  0
  3 11  1  0
 12 13  2  0
 13 14  1  0
 14 15  2  0
 15 16  1  0
 16 17  2  0
 12 17  1  0
 15 18  1  0
  9 12  1  0
  4 19  1  0
  6 20  1  0
  7 21  1  0
  9 22  1  0
 10 23  1  0
 10 24  1  0
 10 25  1  0
 11 26  1  0
 13 27  1  0
 14 28  1  0
 16 29  1  0
 17 30  1  0
M  END
>  <From>  (20) 
www.bindingDB.org

>  <BindingDB Reactant_set_id>  (20) 
408358

>  <Ligand InChI>  (20) 
InChI=1S/C14H12FNO2/c1-9-2-7-12(13(17)8-9)14(18)16-11-5-3-10(15)4-6-11/h2-8,17H,1H3,(H,16,18)

>  <Ligand InChI Key>  (20) 
HDPUBNMJMVDMBW-UHFFFAOYSA-N

>  <BindingDB MonomerID>  (20) 
234313

>  <BindingDB Ligand Name>  (20) 
N-(4-fluorophenyl)-2-hydroxy-4-methylbenzamide (15)

>  <Target Name>  (20) 
Epidermal growth factor receptor [645-1186]

>  <Target Source Organism According to Curator or DataSource>  (20) 


>  <Ki (nM)>  (20) 


>  <IC50 (nM)>  (20) 
 40170

>  <Kd (nM)>  (20) 


>  <EC50 (nM)>  (20) 


>  <kon (M-1-s-1)>  (20) 


>  <koff (s-1)>  (20) 


>  <pH>  (20) 
7.4

>  <Temp C>  (20) 
25.00

>  <Curation/DataSource>  (20) 
Curated from the literature by BindingDB

>  <Article DOI>  (20) 
10.3109/14756361003671060

>  <BindingDB Entry DOI>  (20) 
10.7270/Q2XW4HPN

>  <PMID>  (20) 
20583855

>  <PubChem AID>  (20) 
aid1802974

>  <Patent Number>  (20) 


>  <Authors>  (20) 
Zhu, ZW; Shi, L; Ruan, XM; Yang, Y; Li, HQ; Xu, SP; Zhu, HL

>  <Institution>  (20) 
Nanjing University

>  <Link to Ligand in BindingDB>  (20) 
http://www.bindingdb.org/bind/chemsearch/marvin/MolStructure.jsp?monomerid=234313

>  <Link to Ligand-Target Pair in BindingDB>  (20) 
http://www.bindingdb.org/jsp/dbsearch/PrimarySearch_ki.jsp?energyterm=kJ/mole&tag=r21&monomerid=234313&enzyme=Epidermal+growth+factor+receptor+%5B645-1186%5D&column=ki&startPg=0&Increment=50&submit=Search

>  <Ligand HET ID in PDB>  (20) 


>  <PDB ID(s) for Ligand-Target Complex>  (20) 


>  <PubChem CID of Ligand>  (20) 
5274037

>  <PubChem SID of Ligand>  (20) 
340094302

>  <ChEBI ID of Ligand>  (20) 


>  <ChEMBL ID of Ligand>  (20) 


>  <DrugBank ID of Ligand>  (20) 


>  <IUPHAR_GRAC ID of Ligand>  (20) 


>  <KEGG ID of Ligand>  (20) 


>  <ZINC ID of Ligand>  (20) 


>  <Number of Protein Chains in Target (bigger than 1 implies a multichain complex)>  (20) 
1

>  <BindingDB Target Chain Sequence>  (20) 
SIATGMVGALLLLLVVALGIGLFMRRRHIVRKRTLRRLLQERELVEPLTPSGEAPNQALLRILKETEFKKIKVLGSGAFGTVYKGLWIPEGEKVKIPVAIKELREATSPKANKEILDEAYVMASVDNPHVCRLLGICLTSTVQLITQLMPFGCLLDYVREHKDNIGSQYLLNWCVQIAKGMNYLEDRRLVHRDLAARNVLVKTPQHVKITDFGLAKLLGAEEKEYHAEGGKVPIKWMALESILHRIYTHQSDVWSYGVTVWELMTFGSKPYDGIPASEISSILEKGERLPQPPICTIDVYMIMVKCWMIDADSRPKFRELIIEFSKMARDPQRYLVIQGDERMHLPSPTDSNFYRALMDEEDMDDVVDADEYLIPQQGFFSSPSTSRTPLLSSLSATSNNSTVACIDRNGLQSCPIKEDSFLQRYSSDPTGALTEDSIDDTFLPVPEYINQSVPKRPAGSVQNPVYHNQPLNPAPSRDPHYQDPHSTAVGNPEYLNTVQPTCVNSTFDSPAHWAQKGSHQISLDNPDYQQDFFPKEAKPNGI

>  <PDB ID(s) of Target Chain>  (20) 
1M14,1M17,1XKK,1Z9I,2GS2,2GS6,2ITW,2ITX,2ITY,2J5E,2J5F,2J6M,2RF9,2RGP,3BEL,3GOP,3POZ,3VJO,3W2O,3W2P,3W2Q,3W2R,3W2S,3W32,3W33,4G5J,4I23,4JQ7,4JQ8,4JR3,4JRV,4LI5,4RJ4,4RJ5,4RJ6,4RJ7,4RJ8,4TKS,4WKQ,4WRG,4ZAU,5C8K,5C8M,5C8N,5CAL,5CAN,5CAO,5CAP,5CAQ,5CAS,5CAU,5CAV,5EDP,5EDQ,5EDR,5EM5,5EM6,5EM7,5EM8,5GNK,5HCX,5HCY,5HCZ,5HIB,5HIC,5UGB,5Y25,6D8E,6JZ0,6S89,6S8A,6VH4,6VHN,6VHP,7AEI,7AEM,7B85,7OXB,7SI1,7UKV,7ZYM,7ZYN,7ZYP,8A27,8A2A,8HY7

>  <UniProt (SwissProt) Recommended Name of Target Chain>  (20) 
Epidermal growth factor receptor

>  <UniProt (SwissProt) Entry Name of Target Chain>  (20) 
EGFR_HUMAN

>  <UniProt (SwissProt) Primary ID of Target Chain>  (20) 
P00533

>  <UniProt (SwissProt) Secondary ID(s) of Target Chain>  (20) 
O00688 O00732 P06268 Q14225 Q68GS5 Q92795 Q9BZS2 Q9GZX1 Q9H2C9 Q9H3C9 Q9UMD7 Q9UMD8 Q9UMG5

>  <UniProt (SwissProt) Alternative ID(s) of Target Chain>  (20) 


>  <UniProt (TrEMBL) Submitted Name of Target Chain>  (20) 


>  <UniProt (TrEMBL) Entry Name of Target Chain>  (20) 


>  <UniProt (TrEMBL) Primary ID of Target Chain>  (20) 


>  <UniProt (TrEMBL) Secondary ID(s) of Target Chain>  (20) 


>  <UniProt (TrEMBL) Alternative ID(s) of Target Chain>  (20) 


$$$$
Untitled Document-1
     RDKit          3D

 27 28  0  0  0  0  0  0  0  0999 V2000
   -1.4265   -0.6024    0.0652 C   0  0  0  0  0  0  0  0  0  0  0  0
   -2.8267   -0.1370   -0.0325 C   0  0  0  0  0  0  0  0  0  0  0  0
   -3.2308    1.1107    0.4897 C   0  0  0  0  0  0  0  0  0  0  0  0
   -4.5669    1.5201    0.3616 C   0  0  0  0  0  0  0  0  0  0  0  0
   -5.5030    0.6901   -0.2588 C   0  0  0  0  0  0  0  0  0  0  0  0
   -5.1135   -0.5562   -0.7513 C   0  0  0  0  0  0  0  0  0  0  0  0
   -3.7844   -0.9712   -0.6353 C   0  0  0  0  0  0  0  0  0  0  0  0
   -1.2035   -1.7937    0.4130 O   0  0  0  0  0  0  0  0  0  0  0  0
   -0.3337    0.2842   -0.2362 N   0  0  0  0  0  0  0  0  0  0  0  0
   -2.3195    1.9278    1.1586 O   0  0  0  0  0  0  0  0  0  0  0  0
    1.0509   -0.0990   -0.1873 C   0  0  0  0  0  0  0  0  0  0  0  0
    2.0021    0.8231    0.2760 C   0  0  0  0  0  0  0  0  0  0  0  0
    3.3582    0.4846    0.3115 C   0  0  0  0  0  0  0  0  0  0  0  0
    3.7785   -0.7732   -0.1318 C   0  0  0  0  0  0  0  0  0  0  0  0
    2.8411   -1.6892   -0.6195 C   0  0  0  0  0  0  0  0  0  0  0  0
    1.4840   -1.3535   -0.6549 C   0  0  0  0  0  0  0  0  0  0  0  0
    5.4804   -1.1957   -0.0904 Cl  0  0  0  0  0  0  0  0  0  0  0  0
   -4.8833    2.4778    0.7550 H   0  0  0  0  0  0  0  0  0  0  0  0
   -6.5330    1.0100   -0.3504 H   0  0  0  0  0  0  0  0  0  0  0  0
   -5.8418   -1.2012   -1.2260 H   0  0  0  0  0  0  0  0  0  0  0  0
   -3.4987   -1.9383   -1.0312 H   0  0  0  0  0  0  0  0  0  0  0  0
   -0.5449    1.2832   -0.4555 H   0  0  0  0  0  0  0  0  0  0  0  0
   -2.5930    2.8227    1.5474 H   0  0  0  0  0  0  0  0  0  0  0  0
    1.6889    1.8010    0.6199 H   0  0  0  0  0  0  0  0  0  0  0  0
    4.0807    1.2010    0.6812 H   0  0  0  0  0  0  0  0  0  0  0  0
    3.1638   -2.6574   -0.9805 H   0  0  0  0  0  0  0  0  0  0  0  0
    0.7825   -2.0621   -1.0738 H   0  0  0  0  0  0  0  0  0  0  0  0
  1  2  1  0
  2  3  2  0
  3  4  1  0
  4  5  2  0
  5  6  1  0
  6  7  2  0
  2  7  1  0
  1  8  2  0
  1  9  1  0
  3 10  1  0
 11 12  2  0
 12 13  1  0
 13 14  2  0
 14 15  1  0
 15 16  2  0
 11 16  1  0
 14 17  1  0
  9 11  1  0
  4 18  1  0
  5 19  1  0
  6 20  1  0
  7 21  1  0
  9 22  1  0
 10 23  1  0
 12 24  1  0
 13 25  1  0
 15 26  1  0
 16 27  1  0
M  END
>  <From>  (21) 
www.bindingDB.org

>  <BindingDB Reactant_set_id>  (21) 
408349

>  <Ligand InChI>  (21) 
InChI=1S/C13H10ClNO2/c14-9-5-7-10(8-6-9)15-13(17)11-3-1-2-4-12(11)16/h1-8,16H,(H,15,17)

>  <Ligand InChI Key>  (21) 
BSNNYLFMWONSIV-UHFFFAOYSA-N

>  <BindingDB MonomerID>  (21) 
234305

>  <BindingDB Ligand Name>  (21) 
N-(4-chlorophenyl)-2-hydroxybenzamide (6)

>  <Target Name>  (21) 
Epidermal growth factor receptor [645-1186]

>  <Target Source Organism According to Curator or DataSource>  (21) 


>  <Ki (nM)>  (21) 


>  <IC50 (nM)>  (21) 
 41760

>  <Kd (nM)>  (21) 


>  <EC50 (nM)>  (21) 


>  <kon (M-1-s-1)>  (21) 


>  <koff (s-1)>  (21) 


>  <pH>  (21) 
7.4

>  <Temp C>  (21) 
25.00

>  <Curation/DataSource>  (21) 
Curated from the literature by BindingDB

>  <Article DOI>  (21) 
10.3109/14756361003671060

>  <BindingDB Entry DOI>  (21) 
10.7270/Q2XW4HPN

>  <PMID>  (21) 
20583855

>  <PubChem AID>  (21) 
aid1802974

>  <Patent Number>  (21) 


>  <Authors>  (21) 
Zhu, ZW; Shi, L; Ruan, XM; Yang, Y; Li, HQ; Xu, SP; Zhu, HL

>  <Institution>  (21) 
Nanjing University

>  <Link to Ligand in BindingDB>  (21) 
http://www.bindingdb.org/bind/chemsearch/marvin/MolStructure.jsp?monomerid=234305

>  <Link to Ligand-Target Pair in BindingDB>  (21) 
http://www.bindingdb.org/jsp/dbsearch/PrimarySearch_ki.jsp?energyterm=kJ/mole&tag=r21&monomerid=234305&enzyme=Epidermal+growth+factor+receptor+%5B645-1186%5D&column=ki&startPg=0&Increment=50&submit=Search

>  <Ligand HET ID in PDB>  (21) 


>  <PDB ID(s) for Ligand-Target Complex>  (21) 


>  <PubChem CID of Ligand>  (21) 
77253

>  <PubChem SID of Ligand>  (21) 
340094294

>  <ChEBI ID of Ligand>  (21) 


>  <ChEMBL ID of Ligand>  (21) 


>  <DrugBank ID of Ligand>  (21) 


>  <IUPHAR_GRAC ID of Ligand>  (21) 


>  <KEGG ID of Ligand>  (21) 


>  <ZINC ID of Ligand>  (21) 


>  <Number of Protein Chains in Target (bigger than 1 implies a multichain complex)>  (21) 
1

>  <BindingDB Target Chain Sequence>  (21) 
SIATGMVGALLLLLVVALGIGLFMRRRHIVRKRTLRRLLQERELVEPLTPSGEAPNQALLRILKETEFKKIKVLGSGAFGTVYKGLWIPEGEKVKIPVAIKELREATSPKANKEILDEAYVMASVDNPHVCRLLGICLTSTVQLITQLMPFGCLLDYVREHKDNIGSQYLLNWCVQIAKGMNYLEDRRLVHRDLAARNVLVKTPQHVKITDFGLAKLLGAEEKEYHAEGGKVPIKWMALESILHRIYTHQSDVWSYGVTVWELMTFGSKPYDGIPASEISSILEKGERLPQPPICTIDVYMIMVKCWMIDADSRPKFRELIIEFSKMARDPQRYLVIQGDERMHLPSPTDSNFYRALMDEEDMDDVVDADEYLIPQQGFFSSPSTSRTPLLSSLSATSNNSTVACIDRNGLQSCPIKEDSFLQRYSSDPTGALTEDSIDDTFLPVPEYINQSVPKRPAGSVQNPVYHNQPLNPAPSRDPHYQDPHSTAVGNPEYLNTVQPTCVNSTFDSPAHWAQKGSHQISLDNPDYQQDFFPKEAKPNGI

>  <PDB ID(s) of Target Chain>  (21) 
1M14,1M17,1XKK,1Z9I,2GS2,2GS6,2ITW,2ITX,2ITY,2J5E,2J5F,2J6M,2RF9,2RGP,3BEL,3GOP,3POZ,3VJO,3W2O,3W2P,3W2Q,3W2R,3W2S,3W32,3W33,4G5J,4I23,4JQ7,4JQ8,4JR3,4JRV,4LI5,4RJ4,4RJ5,4RJ6,4RJ7,4RJ8,4TKS,4WKQ,4WRG,4ZAU,5C8K,5C8M,5C8N,5CAL,5CAN,5CAO,5CAP,5CAQ,5CAS,5CAU,5CAV,5EDP,5EDQ,5EDR,5EM5,5EM6,5EM7,5EM8,5GNK,5HCX,5HCY,5HCZ,5HIB,5HIC,5UGB,5Y25,6D8E,6JZ0,6S89,6S8A,6VH4,6VHN,6VHP,7AEI,7AEM,7B85,7OXB,7SI1,7UKV,7ZYM,7ZYN,7ZYP,8A27,8A2A,8HY7

>  <UniProt (SwissProt) Recommended Name of Target Chain>  (21) 
Epidermal growth factor receptor

>  <UniProt (SwissProt) Entry Name of Target Chain>  (21) 
EGFR_HUMAN

>  <UniProt (SwissProt) Primary ID of Target Chain>  (21) 
P00533

>  <UniProt (SwissProt) Secondary ID(s) of Target Chain>  (21) 
O00688 O00732 P06268 Q14225 Q68GS5 Q92795 Q9BZS2 Q9GZX1 Q9H2C9 Q9H3C9 Q9UMD7 Q9UMD8 Q9UMG5

>  <UniProt (SwissProt) Alternative ID(s) of Target Chain>  (21) 


>  <UniProt (TrEMBL) Submitted Name of Target Chain>  (21) 


>  <UniProt (TrEMBL) Entry Name of Target Chain>  (21) 


>  <UniProt (TrEMBL) Primary ID of Target Chain>  (21) 


>  <UniProt (TrEMBL) Secondary ID(s) of Target Chain>  (21) 


>  <UniProt (TrEMBL) Alternative ID(s) of Target Chain>  (21) 


$$$$
Untitled Document-1
     RDKit          3D

 27 28  0  0  0  0  0  0  0  0999 V2000
   -1.4120   -0.6077   -0.1472 C   0  0  0  0  0  0  0  0  0  0  0  0
   -2.8100   -0.1360   -0.2368 C   0  0  0  0  0  0  0  0  0  0  0  0
   -3.7587   -0.7658   -1.0796 C   0  0  0  0  0  0  0  0  0  0  0  0
   -5.0878   -0.3243   -1.0783 C   0  0  0  0  0  0  0  0  0  0  0  0
   -5.4794    0.7456   -0.2715 C   0  0  0  0  0  0  0  0  0  0  0  0
   -4.5450    1.3822    0.5454 C   0  0  0  0  0  0  0  0  0  0  0  0
   -3.2187    0.9447    0.5654 C   0  0  0  0  0  0  0  0  0  0  0  0
   -1.1831   -1.8390    0.0011 O   0  0  0  0  0  0  0  0  0  0  0  0
   -0.3254    0.3338   -0.1645 N   0  0  0  0  0  0  0  0  0  0  0  0
   -3.4131   -1.8065   -1.9444 O   0  0  0  0  0  0  0  0  0  0  0  0
    1.0597   -0.0530   -0.1738 C   0  0  0  0  0  0  0  0  0  0  0  0
    2.0032    0.6662    0.5873 C   0  0  0  0  0  0  0  0  0  0  0  0
    3.3551    0.3034    0.5531 C   0  0  0  0  0  0  0  0  0  0  0  0
    3.7790   -0.7638   -0.2439 C   0  0  0  0  0  0  0  0  0  0  0  0
    2.8517   -1.4698   -1.0142 C   0  0  0  0  0  0  0  0  0  0  0  0
    1.5006   -1.1147   -0.9847 C   0  0  0  0  0  0  0  0  0  0  0  0
    5.4748   -1.2109   -0.2834 Cl  0  0  0  0  0  0  0  0  0  0  0  0
    1.5136    2.0026    1.6213 Cl  0  0  0  0  0  0  0  0  0  0  0  0
   -5.8174   -0.8048   -1.7180 H   0  0  0  0  0  0  0  0  0  0  0  0
   -6.5076    1.0834   -0.2821 H   0  0  0  0  0  0  0  0  0  0  0  0
   -4.8506    2.2101    1.1721 H   0  0  0  0  0  0  0  0  0  0  0  0
   -2.5175    1.4347    1.2297 H   0  0  0  0  0  0  0  0  0  0  0  0
   -0.5497    1.3535   -0.1383 H   0  0  0  0  0  0  0  0  0  0  0  0
   -2.4605   -2.1152   -2.0868 H   0  0  0  0  0  0  0  0  0  0  0  0
    4.0763    0.8507    1.1472 H   0  0  0  0  0  0  0  0  0  0  0  0
    3.1776   -2.2890   -1.6426 H   0  0  0  0  0  0  0  0  0  0  0  0
    0.8041   -1.6540   -1.6135 H   0  0  0  0  0  0  0  0  0  0  0  0
  1  2  1  0
  2  3  2  0
  3  4  1  0
  4  5  2  0
  5  6  1  0
  6  7  2  0
  2  7  1  0
  1  8  2  0
  1  9  1  0
  3 10  1  0
 11 12  2  0
 12 13  1  0
 13 14  2  0
 14 15  1  0
 15 16  2  0
 11 16  1  0
 14 17  1  0
 12 18  1  0
  9 11  1  0
  4 19  1  0
  5 20  1  0
  6 21  1  0
  7 22  1  0
  9 23  1  0
 10 24  1  0
 13 25  1  0
 15 26  1  0
 16 27  1  0
M  END
>  <From>  (22) 
www.bindingDB.org

>  <BindingDB Reactant_set_id>  (22) 
408352

>  <Ligand InChI>  (22) 
InChI=1S/C13H9Cl2NO2/c14-8-5-6-11(10(15)7-8)16-13(18)9-3-1-2-4-12(9)17/h1-7,17H,(H,16,18)

>  <Ligand InChI Key>  (22) 
GFUKRQFBTHGSIC-UHFFFAOYSA-N

>  <BindingDB MonomerID>  (22) 
234308

>  <BindingDB Ligand Name>  (22) 
N-(2,4-dichlorophenyl)-2-hydroxybenzamide (9)

>  <Target Name>  (22) 
Epidermal growth factor receptor [645-1186]

>  <Target Source Organism According to Curator or DataSource>  (22) 


>  <Ki (nM)>  (22) 


>  <IC50 (nM)>  (22) 
 45290

>  <Kd (nM)>  (22) 


>  <EC50 (nM)>  (22) 


>  <kon (M-1-s-1)>  (22) 


>  <koff (s-1)>  (22) 


>  <pH>  (22) 
7.4

>  <Temp C>  (22) 
25.00

>  <Curation/DataSource>  (22) 
Curated from the literature by BindingDB

>  <Article DOI>  (22) 
10.3109/14756361003671060

>  <BindingDB Entry DOI>  (22) 
10.7270/Q2XW4HPN

>  <PMID>  (22) 
20583855

>  <PubChem AID>  (22) 
aid1802974

>  <Patent Number>  (22) 


>  <Authors>  (22) 
Zhu, ZW; Shi, L; Ruan, XM; Yang, Y; Li, HQ; Xu, SP; Zhu, HL

>  <Institution>  (22) 
Nanjing University

>  <Link to Ligand in BindingDB>  (22) 
http://www.bindingdb.org/bind/chemsearch/marvin/MolStructure.jsp?monomerid=234308

>  <Link to Ligand-Target Pair in BindingDB>  (22) 
http://www.bindingdb.org/jsp/dbsearch/PrimarySearch_ki.jsp?energyterm=kJ/mole&tag=r21&monomerid=234308&enzyme=Epidermal+growth+factor+receptor+%5B645-1186%5D&column=ki&startPg=0&Increment=50&submit=Search

>  <Ligand HET ID in PDB>  (22) 


>  <PDB ID(s) for Ligand-Target Complex>  (22) 


>  <PubChem CID of Ligand>  (22) 
11837097

>  <PubChem SID of Ligand>  (22) 
340094297

>  <ChEBI ID of Ligand>  (22) 


>  <ChEMBL ID of Ligand>  (22) 


>  <DrugBank ID of Ligand>  (22) 


>  <IUPHAR_GRAC ID of Ligand>  (22) 


>  <KEGG ID of Ligand>  (22) 


>  <ZINC ID of Ligand>  (22) 


>  <Number of Protein Chains in Target (bigger than 1 implies a multichain complex)>  (22) 
1

>  <BindingDB Target Chain Sequence>  (22) 
SIATGMVGALLLLLVVALGIGLFMRRRHIVRKRTLRRLLQERELVEPLTPSGEAPNQALLRILKETEFKKIKVLGSGAFGTVYKGLWIPEGEKVKIPVAIKELREATSPKANKEILDEAYVMASVDNPHVCRLLGICLTSTVQLITQLMPFGCLLDYVREHKDNIGSQYLLNWCVQIAKGMNYLEDRRLVHRDLAARNVLVKTPQHVKITDFGLAKLLGAEEKEYHAEGGKVPIKWMALESILHRIYTHQSDVWSYGVTVWELMTFGSKPYDGIPASEISSILEKGERLPQPPICTIDVYMIMVKCWMIDADSRPKFRELIIEFSKMARDPQRYLVIQGDERMHLPSPTDSNFYRALMDEEDMDDVVDADEYLIPQQGFFSSPSTSRTPLLSSLSATSNNSTVACIDRNGLQSCPIKEDSFLQRYSSDPTGALTEDSIDDTFLPVPEYINQSVPKRPAGSVQNPVYHNQPLNPAPSRDPHYQDPHSTAVGNPEYLNTVQPTCVNSTFDSPAHWAQKGSHQISLDNPDYQQDFFPKEAKPNGI

>  <PDB ID(s) of Target Chain>  (22) 
1M14,1M17,1XKK,1Z9I,2GS2,2GS6,2ITW,2ITX,2ITY,2J5E,2J5F,2J6M,2RF9,2RGP,3BEL,3GOP,3POZ,3VJO,3W2O,3W2P,3W2Q,3W2R,3W2S,3W32,3W33,4G5J,4I23,4JQ7,4JQ8,4JR3,4JRV,4LI5,4RJ4,4RJ5,4RJ6,4RJ7,4RJ8,4TKS,4WKQ,4WRG,4ZAU,5C8K,5C8M,5C8N,5CAL,5CAN,5CAO,5CAP,5CAQ,5CAS,5CAU,5CAV,5EDP,5EDQ,5EDR,5EM5,5EM6,5EM7,5EM8,5GNK,5HCX,5HCY,5HCZ,5HIB,5HIC,5UGB,5Y25,6D8E,6JZ0,6S89,6S8A,6VH4,6VHN,6VHP,7AEI,7AEM,7B85,7OXB,7SI1,7UKV,7ZYM,7ZYN,7ZYP,8A27,8A2A,8HY7

>  <UniProt (SwissProt) Recommended Name of Target Chain>  (22) 
Epidermal growth factor receptor

>  <UniProt (SwissProt) Entry Name of Target Chain>  (22) 
EGFR_HUMAN

>  <UniProt (SwissProt) Primary ID of Target Chain>  (22) 
P00533

>  <UniProt (SwissProt) Secondary ID(s) of Target Chain>  (22) 
O00688 O00732 P06268 Q14225 Q68GS5 Q92795 Q9BZS2 Q9GZX1 Q9H2C9 Q9H3C9 Q9UMD7 Q9UMD8 Q9UMG5

>  <UniProt (SwissProt) Alternative ID(s) of Target Chain>  (22) 


>  <UniProt (TrEMBL) Submitted Name of Target Chain>  (22) 


>  <UniProt (TrEMBL) Entry Name of Target Chain>  (22) 


>  <UniProt (TrEMBL) Primary ID of Target Chain>  (22) 


>  <UniProt (TrEMBL) Secondary ID(s) of Target Chain>  (22) 


>  <UniProt (TrEMBL) Alternative ID(s) of Target Chain>  (22) 


$$$$
Untitled Document-1
     RDKit          3D

 27 28  0  0  0  0  0  0  0  0999 V2000
   -1.3828   -0.4344   -0.5504 C   0  0  0  0  0  0  0  0  0  0  0  0
   -2.8032   -0.1064   -0.2793 C   0  0  0  0  0  0  0  0  0  0  0  0
   -3.8087   -1.0888   -0.4155 C   0  0  0  0  0  0  0  0  0  0  0  0
   -5.1495   -0.7570   -0.1698 C   0  0  0  0  0  0  0  0  0  0  0  0
   -5.4970    0.5407    0.2091 C   0  0  0  0  0  0  0  0  0  0  0  0
   -4.5095    1.5174    0.3404 C   0  0  0  0  0  0  0  0  0  0  0  0
   -3.1709    1.1995    0.0960 C   0  0  0  0  0  0  0  0  0  0  0  0
   -1.1045   -1.2263   -1.4917 O   0  0  0  0  0  0  0  0  0  0  0  0
   -0.3270    0.1593    0.2281 N   0  0  0  0  0  0  0  0  0  0  0  0
    1.0618   -0.1873    0.0931 C   0  0  0  0  0  0  0  0  0  0  0  0
    1.4700   -1.5160   -0.1292 C   0  0  0  0  0  0  0  0  0  0  0  0
    2.8295   -1.8282   -0.2299 C   0  0  0  0  0  0  0  0  0  0  0  0
    3.7914   -0.8238   -0.0959 C   0  0  0  0  0  0  0  0  0  0  0  0
    3.3958    0.4935    0.1490 C   0  0  0  0  0  0  0  0  0  0  0  0
    2.0375    0.8096    0.2514 C   0  0  0  0  0  0  0  0  0  0  0  0
   -3.4756   -2.3940   -0.7790 O   0  0  0  0  0  0  0  0  0  0  0  0
   -5.9236   -1.5073   -0.2695 H   0  0  0  0  0  0  0  0  0  0  0  0
   -6.5332    0.7904    0.3974 H   0  0  0  0  0  0  0  0  0  0  0  0
   -4.7822    2.5256    0.6245 H   0  0  0  0  0  0  0  0  0  0  0  0
   -2.4314    1.9855    0.1739 H   0  0  0  0  0  0  0  0  0  0  0  0
   -0.5629    0.9236    0.8991 H   0  0  0  0  0  0  0  0  0  0  0  0
    0.7446   -2.3155   -0.1972 H   0  0  0  0  0  0  0  0  0  0  0  0
    3.1378   -2.8514   -0.4022 H   0  0  0  0  0  0  0  0  0  0  0  0
    4.8432   -1.0678   -0.1724 H   0  0  0  0  0  0  0  0  0  0  0  0
    4.1416    1.2697    0.2620 H   0  0  0  0  0  0  0  0  0  0  0  0
    1.7430    1.8337    0.4437 H   0  0  0  0  0  0  0  0  0  0  0  0
   -4.1809   -3.1150   -0.8777 H   0  0  0  0  0  0  0  0  0  0  0  0
  1  2  1  0
  2  3  2  0
  3  4  1  0
  4  5  2  0
  5  6  1  0
  6  7  2  0
  2  7  1  0
  1  8  2  0
  1  9  1  0
 10 11  2  0
 11 12  1  0
 12 13  2  0
 13 14  1  0
 14 15  2  0
 10 15  1  0
  9 10  1  0
  3 16  1  0
  4 17  1  0
  5 18  1  0
  6 19  1  0
  7 20  1  0
  9 21  1  0
 11 22  1  0
 12 23  1  0
 13 24  1  0
 14 25  1  0
 15 26  1  0
 16 27  1  0
M  END
>  <From>  (23) 
www.bindingDB.org

>  <BindingDB Reactant_set_id>  (23) 
408344

>  <Ligand InChI>  (23) 
InChI=1S/C13H11NO2/c15-12-9-5-4-8-11(12)13(16)14-10-6-2-1-3-7-10/h1-9,15H,(H,14,16)

>  <Ligand InChI Key>  (23) 
WKEDVNSFRWHDNR-UHFFFAOYSA-N

>  <BindingDB MonomerID>  (23) 
234300

>  <BindingDB Ligand Name>  (23) 
2-Hydroxy-N-phenylbenzamide (1)

>  <Target Name>  (23) 
Epidermal growth factor receptor [645-1186]

>  <Target Source Organism According to Curator or DataSource>  (23) 


>  <Ki (nM)>  (23) 


>  <IC50 (nM)>  (23) 
 50000

>  <Kd (nM)>  (23) 


>  <EC50 (nM)>  (23) 


>  <kon (M-1-s-1)>  (23) 


>  <koff (s-1)>  (23) 


>  <pH>  (23) 
7.4

>  <Temp C>  (23) 
25.00

>  <Curation/DataSource>  (23) 
Curated from the literature by BindingDB

>  <Article DOI>  (23) 
10.3109/14756361003671060

>  <BindingDB Entry DOI>  (23) 
10.7270/Q2XW4HPN

>  <PMID>  (23) 
20583855

>  <PubChem AID>  (23) 
aid1802974

>  <Patent Number>  (23) 


>  <Authors>  (23) 
Zhu, ZW; Shi, L; Ruan, XM; Yang, Y; Li, HQ; Xu, SP; Zhu, HL

>  <Institution>  (23) 
Nanjing University

>  <Link to Ligand in BindingDB>  (23) 
http://www.bindingdb.org/bind/chemsearch/marvin/MolStructure.jsp?monomerid=234300

>  <Link to Ligand-Target Pair in BindingDB>  (23) 
http://www.bindingdb.org/jsp/dbsearch/PrimarySearch_ki.jsp?energyterm=kJ/mole&tag=r21&monomerid=234300&enzyme=Epidermal+growth+factor+receptor+%5B645-1186%5D&column=ki&startPg=0&Increment=50&submit=Search

>  <Ligand HET ID in PDB>  (23) 
SLI

>  <PDB ID(s) for Ligand-Target Complex>  (23) 
3AE2

>  <PubChem CID of Ligand>  (23) 
6872

>  <PubChem SID of Ligand>  (23) 
340094289

>  <ChEBI ID of Ligand>  (23) 


>  <ChEMBL ID of Ligand>  (23) 


>  <DrugBank ID of Ligand>  (23) 


>  <IUPHAR_GRAC ID of Ligand>  (23) 


>  <KEGG ID of Ligand>  (23) 
C18915

>  <ZINC ID of Ligand>  (23) 


>  <Number of Protein Chains in Target (bigger than 1 implies a multichain complex)>  (23) 
1

>  <BindingDB Target Chain Sequence>  (23) 
SIATGMVGALLLLLVVALGIGLFMRRRHIVRKRTLRRLLQERELVEPLTPSGEAPNQALLRILKETEFKKIKVLGSGAFGTVYKGLWIPEGEKVKIPVAIKELREATSPKANKEILDEAYVMASVDNPHVCRLLGICLTSTVQLITQLMPFGCLLDYVREHKDNIGSQYLLNWCVQIAKGMNYLEDRRLVHRDLAARNVLVKTPQHVKITDFGLAKLLGAEEKEYHAEGGKVPIKWMALESILHRIYTHQSDVWSYGVTVWELMTFGSKPYDGIPASEISSILEKGERLPQPPICTIDVYMIMVKCWMIDADSRPKFRELIIEFSKMARDPQRYLVIQGDERMHLPSPTDSNFYRALMDEEDMDDVVDADEYLIPQQGFFSSPSTSRTPLLSSLSATSNNSTVACIDRNGLQSCPIKEDSFLQRYSSDPTGALTEDSIDDTFLPVPEYINQSVPKRPAGSVQNPVYHNQPLNPAPSRDPHYQDPHSTAVGNPEYLNTVQPTCVNSTFDSPAHWAQKGSHQISLDNPDYQQDFFPKEAKPNGI

>  <PDB ID(s) of Target Chain>  (23) 
1M14,1M17,1XKK,1Z9I,2GS2,2GS6,2ITW,2ITX,2ITY,2J5E,2J5F,2J6M,2RF9,2RGP,3BEL,3GOP,3POZ,3VJO,3W2O,3W2P,3W2Q,3W2R,3W2S,3W32,3W33,4G5J,4I23,4JQ7,4JQ8,4JR3,4JRV,4LI5,4RJ4,4RJ5,4RJ6,4RJ7,4RJ8,4TKS,4WKQ,4WRG,4ZAU,5C8K,5C8M,5C8N,5CAL,5CAN,5CAO,5CAP,5CAQ,5CAS,5CAU,5CAV,5EDP,5EDQ,5EDR,5EM5,5EM6,5EM7,5EM8,5GNK,5HCX,5HCY,5HCZ,5HIB,5HIC,5UGB,5Y25,6D8E,6JZ0,6S89,6S8A,6VH4,6VHN,6VHP,7AEI,7AEM,7B85,7OXB,7SI1,7UKV,7ZYM,7ZYN,7ZYP,8A27,8A2A,8HY7

>  <UniProt (SwissProt) Recommended Name of Target Chain>  (23) 
Epidermal growth factor receptor

>  <UniProt (SwissProt) Entry Name of Target Chain>  (23) 
EGFR_HUMAN

>  <UniProt (SwissProt) Primary ID of Target Chain>  (23) 
P00533

>  <UniProt (SwissProt) Secondary ID(s) of Target Chain>  (23) 
O00688 O00732 P06268 Q14225 Q68GS5 Q92795 Q9BZS2 Q9GZX1 Q9H2C9 Q9H3C9 Q9UMD7 Q9UMD8 Q9UMG5

>  <UniProt (SwissProt) Alternative ID(s) of Target Chain>  (23) 


>  <UniProt (TrEMBL) Submitted Name of Target Chain>  (23) 


>  <UniProt (TrEMBL) Entry Name of Target Chain>  (23) 


>  <UniProt (TrEMBL) Primary ID of Target Chain>  (23) 


>  <UniProt (TrEMBL) Secondary ID(s) of Target Chain>  (23) 


>  <UniProt (TrEMBL) Alternative ID(s) of Target Chain>  (23) 


$$$$
Untitled Document-1
     RDKit          3D

 27 28  0  0  0  0  0  0  0  0999 V2000
   -1.4065   -0.5664   -0.1929 C   0  0  0  0  0  0  0  0  0  0  0  0
   -2.8004   -0.0761   -0.2508 C   0  0  0  0  0  0  0  0  0  0  0  0
   -3.2186    1.0555    0.4822 C   0  0  0  0  0  0  0  0  0  0  0  0
   -4.5475    1.4959    0.3863 C   0  0  0  0  0  0  0  0  0  0  0  0
   -5.4634    0.8072   -0.4118 C   0  0  0  0  0  0  0  0  0  0  0  0
   -5.0609   -0.3285   -1.1159 C   0  0  0  0  0  0  0  0  0  0  0  0
   -3.7385   -0.7719   -1.0331 C   0  0  0  0  0  0  0  0  0  0  0  0
   -1.2009   -1.8042   -0.0677 O   0  0  0  0  0  0  0  0  0  0  0  0
   -0.3000    0.3494   -0.2834 N   0  0  0  0  0  0  0  0  0  0  0  0
   -2.3294    1.7227    1.3247 O   0  0  0  0  0  0  0  0  0  0  0  0
    1.0804   -0.0508   -0.2588 C   0  0  0  0  0  0  0  0  0  0  0  0
    1.5256   -1.2001   -0.9383 C   0  0  0  0  0  0  0  0  0  0  0  0
    2.8795   -1.5504   -0.9187 C   0  0  0  0  0  0  0  0  0  0  0  0
    3.8009   -0.7519   -0.2355 C   0  0  0  0  0  0  0  0  0  0  0  0
    3.3705    0.4042    0.4209 C   0  0  0  0  0  0  0  0  0  0  0  0
    2.0178    0.7580    0.4025 C   0  0  0  0  0  0  0  0  0  0  0  0
    5.1131   -1.0923   -0.2197 F   0  0  0  0  0  0  0  0  0  0  0  0
   -4.8745    2.3660    0.9414 H   0  0  0  0  0  0  0  0  0  0  0  0
   -6.4881    1.1496   -0.4780 H   0  0  0  0  0  0  0  0  0  0  0  0
   -5.7736   -0.8649   -1.7289 H   0  0  0  0  0  0  0  0  0  0  0  0
   -3.4421   -1.6504   -1.5936 H   0  0  0  0  0  0  0  0  0  0  0  0
   -0.4992    1.3740   -0.3181 H   0  0  0  0  0  0  0  0  0  0  0  0
   -2.6136    2.5315    1.8650 H   0  0  0  0  0  0  0  0  0  0  0  0
    0.8373   -1.8104   -1.5071 H   0  0  0  0  0  0  0  0  0  0  0  0
    3.2150   -2.4363   -1.4426 H   0  0  0  0  0  0  0  0  0  0  0  0
    4.0845    1.0286    0.9425 H   0  0  0  0  0  0  0  0  0  0  0  0
    1.6962    1.6574    0.9127 H   0  0  0  0  0  0  0  0  0  0  0  0
  1  2  1  0
  2  3  2  0
  3  4  1  0
  4  5  2  0
  5  6  1  0
  6  7  2  0
  2  7  1  0
  1  8  2  0
  1  9  1  0
  3 10  1  0
 11 12  2  0
 12 13  1  0
 13 14  2  0
 14 15  1  0
 15 16  2  0
 11 16  1  0
 14 17  1  0
  9 11  1  0
  4 18  1  0
  5 19  1  0
  6 20  1  0
  7 21  1  0
  9 22  1  0
 10 23  1  0
 12 24  1  0
 13 25  1  0
 15 26  1  0
 16 27  1  0
M  END
>  <From>  (24) 
www.bindingDB.org

>  <BindingDB Reactant_set_id>  (24) 
408348

>  <Ligand InChI>  (24) 
InChI=1S/C13H10FNO2/c14-9-5-7-10(8-6-9)15-13(17)11-3-1-2-4-12(11)16/h1-8,16H,(H,15,17)

>  <Ligand InChI Key>  (24) 
JRFWTJJEUHYSHV-UHFFFAOYSA-N

>  <BindingDB MonomerID>  (24) 
234304

>  <BindingDB Ligand Name>  (24) 
N-(4-fluorophenyl)-2-hydroxybenzamide (5)

>  <Target Name>  (24) 
Epidermal growth factor receptor [645-1186]

>  <Target Source Organism According to Curator or DataSource>  (24) 


>  <Ki (nM)>  (24) 


>  <IC50 (nM)>  (24) 
 50000

>  <Kd (nM)>  (24) 


>  <EC50 (nM)>  (24) 


>  <kon (M-1-s-1)>  (24) 


>  <koff (s-1)>  (24) 


>  <pH>  (24) 
7.4

>  <Temp C>  (24) 
25.00

>  <Curation/DataSource>  (24) 
Curated from the literature by BindingDB

>  <Article DOI>  (24) 
10.3109/14756361003671060

>  <BindingDB Entry DOI>  (24) 
10.7270/Q2XW4HPN

>  <PMID>  (24) 
20583855

>  <PubChem AID>  (24) 
aid1802974

>  <Patent Number>  (24) 


>  <Authors>  (24) 
Zhu, ZW; Shi, L; Ruan, XM; Yang, Y; Li, HQ; Xu, SP; Zhu, HL

>  <Institution>  (24) 
Nanjing University

>  <Link to Ligand in BindingDB>  (24) 
http://www.bindingdb.org/bind/chemsearch/marvin/MolStructure.jsp?monomerid=234304

>  <Link to Ligand-Target Pair in BindingDB>  (24) 
http://www.bindingdb.org/jsp/dbsearch/PrimarySearch_ki.jsp?energyterm=kJ/mole&tag=r21&monomerid=234304&enzyme=Epidermal+growth+factor+receptor+%5B645-1186%5D&column=ki&startPg=0&Increment=50&submit=Search

>  <Ligand HET ID in PDB>  (24) 


>  <PDB ID(s) for Ligand-Target Complex>  (24) 


>  <PubChem CID of Ligand>  (24) 
478809

>  <PubChem SID of Ligand>  (24) 
340094293

>  <ChEBI ID of Ligand>  (24) 


>  <ChEMBL ID of Ligand>  (24) 


>  <DrugBank ID of Ligand>  (24) 


>  <IUPHAR_GRAC ID of Ligand>  (24) 


>  <KEGG ID of Ligand>  (24) 


>  <ZINC ID of Ligand>  (24) 


>  <Number of Protein Chains in Target (bigger than 1 implies a multichain complex)>  (24) 
1

>  <BindingDB Target Chain Sequence>  (24) 
SIATGMVGALLLLLVVALGIGLFMRRRHIVRKRTLRRLLQERELVEPLTPSGEAPNQALLRILKETEFKKIKVLGSGAFGTVYKGLWIPEGEKVKIPVAIKELREATSPKANKEILDEAYVMASVDNPHVCRLLGICLTSTVQLITQLMPFGCLLDYVREHKDNIGSQYLLNWCVQIAKGMNYLEDRRLVHRDLAARNVLVKTPQHVKITDFGLAKLLGAEEKEYHAEGGKVPIKWMALESILHRIYTHQSDVWSYGVTVWELMTFGSKPYDGIPASEISSILEKGERLPQPPICTIDVYMIMVKCWMIDADSRPKFRELIIEFSKMARDPQRYLVIQGDERMHLPSPTDSNFYRALMDEEDMDDVVDADEYLIPQQGFFSSPSTSRTPLLSSLSATSNNSTVACIDRNGLQSCPIKEDSFLQRYSSDPTGALTEDSIDDTFLPVPEYINQSVPKRPAGSVQNPVYHNQPLNPAPSRDPHYQDPHSTAVGNPEYLNTVQPTCVNSTFDSPAHWAQKGSHQISLDNPDYQQDFFPKEAKPNGI

>  <PDB ID(s) of Target Chain>  (24) 
1M14,1M17,1XKK,1Z9I,2GS2,2GS6,2ITW,2ITX,2ITY,2J5E,2J5F,2J6M,2RF9,2RGP,3BEL,3GOP,3POZ,3VJO,3W2O,3W2P,3W2Q,3W2R,3W2S,3W32,3W33,4G5J,4I23,4JQ7,4JQ8,4JR3,4JRV,4LI5,4RJ4,4RJ5,4RJ6,4RJ7,4RJ8,4TKS,4WKQ,4WRG,4ZAU,5C8K,5C8M,5C8N,5CAL,5CAN,5CAO,5CAP,5CAQ,5CAS,5CAU,5CAV,5EDP,5EDQ,5EDR,5EM5,5EM6,5EM7,5EM8,5GNK,5HCX,5HCY,5HCZ,5HIB,5HIC,5UGB,5Y25,6D8E,6JZ0,6S89,6S8A,6VH4,6VHN,6VHP,7AEI,7AEM,7B85,7OXB,7SI1,7UKV,7ZYM,7ZYN,7ZYP,8A27,8A2A,8HY7

>  <UniProt (SwissProt) Recommended Name of Target Chain>  (24) 
Epidermal growth factor receptor

>  <UniProt (SwissProt) Entry Name of Target Chain>  (24) 
EGFR_HUMAN

>  <UniProt (SwissProt) Primary ID of Target Chain>  (24) 
P00533

>  <UniProt (SwissProt) Secondary ID(s) of Target Chain>  (24) 
O00688 O00732 P06268 Q14225 Q68GS5 Q92795 Q9BZS2 Q9GZX1 Q9H2C9 Q9H3C9 Q9UMD7 Q9UMD8 Q9UMG5

>  <UniProt (SwissProt) Alternative ID(s) of Target Chain>  (24) 


>  <UniProt (TrEMBL) Submitted Name of Target Chain>  (24) 


>  <UniProt (TrEMBL) Entry Name of Target Chain>  (24) 


>  <UniProt (TrEMBL) Primary ID of Target Chain>  (24) 


>  <UniProt (TrEMBL) Secondary ID(s) of Target Chain>  (24) 


>  <UniProt (TrEMBL) Alternative ID(s) of Target Chain>  (24) 


$$$$
Untitled Document-1
     RDKit          3D

 27 28  0  0  0  0  0  0  0  0999 V2000
   -1.4120   -0.5717   -0.1749 C   0  0  0  0  0  0  0  0  0  0  0  0
   -2.8098   -0.0927   -0.2333 C   0  0  0  0  0  0  0  0  0  0  0  0
   -3.2274    1.0560    0.4742 C   0  0  0  0  0  0  0  0  0  0  0  0
   -4.5672    1.4876    0.3730 C   0  0  0  0  0  0  0  0  0  0  0  0
   -5.4776    0.7639   -0.4036 C   0  0  0  0  0  0  0  0  0  0  0  0
   -5.0707   -0.3883   -1.0775 C   0  0  0  0  0  0  0  0  0  0  0  0
   -3.7451   -0.8173   -0.9896 C   0  0  0  0  0  0  0  0  0  0  0  0
   -1.1960   -1.8012    0.0028 O   0  0  0  0  0  0  0  0  0  0  0  0
   -0.3137    0.3462   -0.3244 N   0  0  0  0  0  0  0  0  0  0  0  0
   -2.3148    1.7322    1.2880 O   0  0  0  0  0  0  0  0  0  0  0  0
    1.0697   -0.0435   -0.3057 C   0  0  0  0  0  0  0  0  0  0  0  0
    2.0123    0.8003    0.3024 C   0  0  0  0  0  0  0  0  0  0  0  0
    3.3676    0.4565    0.3133 C   0  0  0  0  0  0  0  0  0  0  0  0
    3.7951   -0.7252   -0.2979 C   0  0  0  0  0  0  0  0  0  0  0  0
    2.8681   -1.5595   -0.9286 C   0  0  0  0  0  0  0  0  0  0  0  0
    1.5116   -1.2193   -0.9405 C   0  0  0  0  0  0  0  0  0  0  0  0
    5.1099   -1.0561   -0.2895 F   0  0  0  0  0  0  0  0  0  0  0  0
   -6.3264   -1.3748   -2.1255 Br  0  0  0  0  0  0  0  0  0  0  0  0
   -5.2048    3.0473    1.2868 Br  0  0  0  0  0  0  0  0  0  0  0  0
   -6.5060    1.0938   -0.4777 H   0  0  0  0  0  0  0  0  0  0  0  0
   -3.4401   -1.7079   -1.5260 H   0  0  0  0  0  0  0  0  0  0  0  0
   -0.5215    1.3671   -0.3992 H   0  0  0  0  0  0  0  0  0  0  0  0
   -2.5572    2.5533    1.8265 H   0  0  0  0  0  0  0  0  0  0  0  0
    1.6929    1.7197    0.7772 H   0  0  0  0  0  0  0  0  0  0  0  0
    4.0858    1.1083    0.7939 H   0  0  0  0  0  0  0  0  0  0  0  0
    3.2011   -2.4660   -1.4178 H   0  0  0  0  0  0  0  0  0  0  0  0
    0.8181   -1.8590   -1.4693 H   0  0  0  0  0  0  0  0  0  0  0  0
  1  2  1  0
  2  3  2  0
  3  4  1  0
  4  5  2  0
  5  6  1  0
  6  7  2  0
  2  7  1  0
  1  8  2  0
  1  9  1  0
  3 10  1  0
 11 12  2  0
 12 13  1  0
 13 14  2  0
 14 15  1  0
 15 16  2  0
 11 16  1  0
 14 17  1  0
  9 11  1  0
  6 18  1  0
  4 19  1  0
  5 20  1  0
  7 21  1  0
  9 22  1  0
 10 23  1  0
 12 24  1  0
 13 25  1  0
 15 26  1  0
 16 27  1  0
M  END
>  <From>  (25) 
www.bindingDB.org

>  <BindingDB Reactant_set_id>  (25) 
408372

>  <Ligand InChI>  (25) 
InChI=1S/C13H8Br2FNO2/c14-7-5-10(12(18)11(15)6-7)13(19)17-9-3-1-8(16)2-4-9/h1-6,18H,(H,17,19)

>  <Ligand InChI Key>  (25) 
WXOUZNPPDSWDGY-UHFFFAOYSA-N

>  <BindingDB MonomerID>  (25) 
234327

>  <BindingDB Ligand Name>  (25) 
3,5-Dibromo-N-(4-fluorophenyl)-2-hydroxybenzamide (29)

>  <Target Name>  (25) 
Epidermal growth factor receptor [645-1186]

>  <Target Source Organism According to Curator or DataSource>  (25) 


>  <Ki (nM)>  (25) 


>  <IC50 (nM)>  (25) 
 50000

>  <Kd (nM)>  (25) 


>  <EC50 (nM)>  (25) 


>  <kon (M-1-s-1)>  (25) 


>  <koff (s-1)>  (25) 


>  <pH>  (25) 
7.4

>  <Temp C>  (25) 
25.00

>  <Curation/DataSource>  (25) 
Curated from the literature by BindingDB

>  <Article DOI>  (25) 
10.3109/14756361003671060

>  <BindingDB Entry DOI>  (25) 
10.7270/Q2XW4HPN

>  <PMID>  (25) 
20583855

>  <PubChem AID>  (25) 
aid1802974

>  <Patent Number>  (25) 


>  <Authors>  (25) 
Zhu, ZW; Shi, L; Ruan, XM; Yang, Y; Li, HQ; Xu, SP; Zhu, HL

>  <Institution>  (25) 
Nanjing University

>  <Link to Ligand in BindingDB>  (25) 
http://www.bindingdb.org/bind/chemsearch/marvin/MolStructure.jsp?monomerid=234327

>  <Link to Ligand-Target Pair in BindingDB>  (25) 
http://www.bindingdb.org/jsp/dbsearch/PrimarySearch_ki.jsp?energyterm=kJ/mole&tag=r21&monomerid=234327&enzyme=Epidermal+growth+factor+receptor+%5B645-1186%5D&column=ki&startPg=0&Increment=50&submit=Search

>  <Ligand HET ID in PDB>  (25) 


>  <PDB ID(s) for Ligand-Target Complex>  (25) 


>  <PubChem CID of Ligand>  (25) 
352410

>  <PubChem SID of Ligand>  (25) 
340094316

>  <ChEBI ID of Ligand>  (25) 


>  <ChEMBL ID of Ligand>  (25) 


>  <DrugBank ID of Ligand>  (25) 


>  <IUPHAR_GRAC ID of Ligand>  (25) 


>  <KEGG ID of Ligand>  (25) 


>  <ZINC ID of Ligand>  (25) 


>  <Number of Protein Chains in Target (bigger than 1 implies a multichain complex)>  (25) 
1

>  <BindingDB Target Chain Sequence>  (25) 
SIATGMVGALLLLLVVALGIGLFMRRRHIVRKRTLRRLLQERELVEPLTPSGEAPNQALLRILKETEFKKIKVLGSGAFGTVYKGLWIPEGEKVKIPVAIKELREATSPKANKEILDEAYVMASVDNPHVCRLLGICLTSTVQLITQLMPFGCLLDYVREHKDNIGSQYLLNWCVQIAKGMNYLEDRRLVHRDLAARNVLVKTPQHVKITDFGLAKLLGAEEKEYHAEGGKVPIKWMALESILHRIYTHQSDVWSYGVTVWELMTFGSKPYDGIPASEISSILEKGERLPQPPICTIDVYMIMVKCWMIDADSRPKFRELIIEFSKMARDPQRYLVIQGDERMHLPSPTDSNFYRALMDEEDMDDVVDADEYLIPQQGFFSSPSTSRTPLLSSLSATSNNSTVACIDRNGLQSCPIKEDSFLQRYSSDPTGALTEDSIDDTFLPVPEYINQSVPKRPAGSVQNPVYHNQPLNPAPSRDPHYQDPHSTAVGNPEYLNTVQPTCVNSTFDSPAHWAQKGSHQISLDNPDYQQDFFPKEAKPNGI

>  <PDB ID(s) of Target Chain>  (25) 
1M14,1M17,1XKK,1Z9I,2GS2,2GS6,2ITW,2ITX,2ITY,2J5E,2J5F,2J6M,2RF9,2RGP,3BEL,3GOP,3POZ,3VJO,3W2O,3W2P,3W2Q,3W2R,3W2S,3W32,3W33,4G5J,4I23,4JQ7,4JQ8,4JR3,4JRV,4LI5,4RJ4,4RJ5,4RJ6,4RJ7,4RJ8,4TKS,4WKQ,4WRG,4ZAU,5C8K,5C8M,5C8N,5CAL,5CAN,5CAO,5CAP,5CAQ,5CAS,5CAU,5CAV,5EDP,5EDQ,5EDR,5EM5,5EM6,5EM7,5EM8,5GNK,5HCX,5HCY,5HCZ,5HIB,5HIC,5UGB,5Y25,6D8E,6JZ0,6S89,6S8A,6VH4,6VHN,6VHP,7AEI,7AEM,7B85,7OXB,7SI1,7UKV,7ZYM,7ZYN,7ZYP,8A27,8A2A,8HY7

>  <UniProt (SwissProt) Recommended Name of Target Chain>  (25) 
Epidermal growth factor receptor

>  <UniProt (SwissProt) Entry Name of Target Chain>  (25) 
EGFR_HUMAN

>  <UniProt (SwissProt) Primary ID of Target Chain>  (25) 
P00533

>  <UniProt (SwissProt) Secondary ID(s) of Target Chain>  (25) 
O00688 O00732 P06268 Q14225 Q68GS5 Q92795 Q9BZS2 Q9GZX1 Q9H2C9 Q9H3C9 Q9UMD7 Q9UMD8 Q9UMG5

>  <UniProt (SwissProt) Alternative ID(s) of Target Chain>  (25) 


>  <UniProt (TrEMBL) Submitted Name of Target Chain>  (25) 


>  <UniProt (TrEMBL) Entry Name of Target Chain>  (25) 


>  <UniProt (TrEMBL) Primary ID of Target Chain>  (25) 


>  <UniProt (TrEMBL) Secondary ID(s) of Target Chain>  (25) 


>  <UniProt (TrEMBL) Alternative ID(s) of Target Chain>  (25) 


$$$$
Untitled Document-1
     RDKit          3D

 27 28  0  0  0  0  0  0  0  0999 V2000
   -1.4140   -0.6286   -0.0281 C   0  0  0  0  0  0  0  0  0  0  0  0
   -2.8095   -0.1589   -0.1571 C   0  0  0  0  0  0  0  0  0  0  0  0
   -3.7572   -0.8467   -0.9543 C   0  0  0  0  0  0  0  0  0  0  0  0
   -5.0843   -0.4010   -0.9930 C   0  0  0  0  0  0  0  0  0  0  0  0
   -5.4750    0.7278   -0.2705 C   0  0  0  0  0  0  0  0  0  0  0  0
   -4.5417    1.4199    0.5014 C   0  0  0  0  0  0  0  0  0  0  0  0
   -3.2173    0.9800    0.5605 C   0  0  0  0  0  0  0  0  0  0  0  0
   -1.1936   -1.8431    0.2295 O   0  0  0  0  0  0  0  0  0  0  0  0
   -0.3216    0.3016   -0.1294 N   0  0  0  0  0  0  0  0  0  0  0  0
   -3.4119   -1.9518   -1.7355 O   0  0  0  0  0  0  0  0  0  0  0  0
    1.0629   -0.0847   -0.1606 C   0  0  0  0  0  0  0  0  0  0  0  0
    2.0240    0.7540    0.4250 C   0  0  0  0  0  0  0  0  0  0  0  0
    3.3794    0.4125    0.3879 C   0  0  0  0  0  0  0  0  0  0  0  0
    3.7889   -0.7628   -0.2489 C   0  0  0  0  0  0  0  0  0  0  0  0
    2.8417   -1.5925   -0.8566 C   0  0  0  0  0  0  0  0  0  0  0  0
    1.4853   -1.2540   -0.8202 C   0  0  0  0  0  0  0  0  0  0  0  0
    5.6408   -1.2263   -0.3022 Br  0  0  0  0  0  0  0  0  0  0  0  0
   -5.8130   -0.9254   -1.5983 H   0  0  0  0  0  0  0  0  0  0  0  0
   -6.5017    1.0679   -0.3115 H   0  0  0  0  0  0  0  0  0  0  0  0
   -4.8469    2.2933    1.0632 H   0  0  0  0  0  0  0  0  0  0  0  0
   -2.5176    1.5152    1.1904 H   0  0  0  0  0  0  0  0  0  0  0  0
   -0.5373    1.3240   -0.1251 H   0  0  0  0  0  0  0  0  0  0  0  0
   -2.4603   -2.2763   -1.8459 H   0  0  0  0  0  0  0  0  0  0  0  0
    1.7197    1.6680    0.9195 H   0  0  0  0  0  0  0  0  0  0  0  0
    4.1099    1.0625    0.8521 H   0  0  0  0  0  0  0  0  0  0  0  0
    3.1563   -2.4946   -1.3653 H   0  0  0  0  0  0  0  0  0  0  0  0
    0.7750   -1.8911   -1.3298 H   0  0  0  0  0  0  0  0  0  0  0  0
  1  2  1  0
  2  3  2  0
  3  4  1  0
  4  5  2  0
  5  6  1  0
  6  7  2  0
  2  7  1  0
  1  8  2  0
  1  9  1  0
  3 10  1  0
 11 12  2  0
 12 13  1  0
 13 14  2  0
 14 15  1  0
 15 16  2  0
 11 16  1  0
 14 17  1  0
  9 11  1  0
  4 18  1  0
  5 19  1  0
  6 20  1  0
  7 21  1  0
  9 22  1  0
 10 23  1  0
 12 24  1  0
 13 25  1  0
 15 26  1  0
 16 27  1  0
M  END
>  <From>  (26) 
www.bindingDB.org

>  <BindingDB Reactant_set_id>  (26) 
408350

>  <Ligand InChI>  (26) 
InChI=1S/C13H10BrNO2/c14-9-5-7-10(8-6-9)15-13(17)11-3-1-2-4-12(11)16/h1-8,16H,(H,15,17)

>  <Ligand InChI Key>  (26) 
DKQMTUHJJPFJRL-UHFFFAOYSA-N

>  <BindingDB MonomerID>  (26) 
234306

>  <BindingDB Ligand Name>  (26) 
N-(4-bromophenyl)-2-hydroxybenzamide (7)

>  <Target Name>  (26) 
Epidermal growth factor receptor [645-1186]

>  <Target Source Organism According to Curator or DataSource>  (26) 


>  <Ki (nM)>  (26) 


>  <IC50 (nM)>  (26) 
 50000

>  <Kd (nM)>  (26) 


>  <EC50 (nM)>  (26) 


>  <kon (M-1-s-1)>  (26) 


>  <koff (s-1)>  (26) 


>  <pH>  (26) 
7.4

>  <Temp C>  (26) 
25.00

>  <Curation/DataSource>  (26) 
Curated from the literature by BindingDB

>  <Article DOI>  (26) 
10.3109/14756361003671060

>  <BindingDB Entry DOI>  (26) 
10.7270/Q2XW4HPN

>  <PMID>  (26) 
20583855

>  <PubChem AID>  (26) 
aid1802974

>  <Patent Number>  (26) 


>  <Authors>  (26) 
Zhu, ZW; Shi, L; Ruan, XM; Yang, Y; Li, HQ; Xu, SP; Zhu, HL

>  <Institution>  (26) 
Nanjing University

>  <Link to Ligand in BindingDB>  (26) 
http://www.bindingdb.org/bind/chemsearch/marvin/MolStructure.jsp?monomerid=234306

>  <Link to Ligand-Target Pair in BindingDB>  (26) 
http://www.bindingdb.org/jsp/dbsearch/PrimarySearch_ki.jsp?energyterm=kJ/mole&tag=r21&monomerid=234306&enzyme=Epidermal+growth+factor+receptor+%5B645-1186%5D&column=ki&startPg=0&Increment=50&submit=Search

>  <Ligand HET ID in PDB>  (26) 


>  <PDB ID(s) for Ligand-Target Complex>  (26) 


>  <PubChem CID of Ligand>  (26) 
75817

>  <PubChem SID of Ligand>  (26) 
340094295

>  <ChEBI ID of Ligand>  (26) 


>  <ChEMBL ID of Ligand>  (26) 


>  <DrugBank ID of Ligand>  (26) 


>  <IUPHAR_GRAC ID of Ligand>  (26) 


>  <KEGG ID of Ligand>  (26) 


>  <ZINC ID of Ligand>  (26) 


>  <Number of Protein Chains in Target (bigger than 1 implies a multichain complex)>  (26) 
1

>  <BindingDB Target Chain Sequence>  (26) 
SIATGMVGALLLLLVVALGIGLFMRRRHIVRKRTLRRLLQERELVEPLTPSGEAPNQALLRILKETEFKKIKVLGSGAFGTVYKGLWIPEGEKVKIPVAIKELREATSPKANKEILDEAYVMASVDNPHVCRLLGICLTSTVQLITQLMPFGCLLDYVREHKDNIGSQYLLNWCVQIAKGMNYLEDRRLVHRDLAARNVLVKTPQHVKITDFGLAKLLGAEEKEYHAEGGKVPIKWMALESILHRIYTHQSDVWSYGVTVWELMTFGSKPYDGIPASEISSILEKGERLPQPPICTIDVYMIMVKCWMIDADSRPKFRELIIEFSKMARDPQRYLVIQGDERMHLPSPTDSNFYRALMDEEDMDDVVDADEYLIPQQGFFSSPSTSRTPLLSSLSATSNNSTVACIDRNGLQSCPIKEDSFLQRYSSDPTGALTEDSIDDTFLPVPEYINQSVPKRPAGSVQNPVYHNQPLNPAPSRDPHYQDPHSTAVGNPEYLNTVQPTCVNSTFDSPAHWAQKGSHQISLDNPDYQQDFFPKEAKPNGI

>  <PDB ID(s) of Target Chain>  (26) 
1M14,1M17,1XKK,1Z9I,2GS2,2GS6,2ITW,2ITX,2ITY,2J5E,2J5F,2J6M,2RF9,2RGP,3BEL,3GOP,3POZ,3VJO,3W2O,3W2P,3W2Q,3W2R,3W2S,3W32,3W33,4G5J,4I23,4JQ7,4JQ8,4JR3,4JRV,4LI5,4RJ4,4RJ5,4RJ6,4RJ7,4RJ8,4TKS,4WKQ,4WRG,4ZAU,5C8K,5C8M,5C8N,5CAL,5CAN,5CAO,5CAP,5CAQ,5CAS,5CAU,5CAV,5EDP,5EDQ,5EDR,5EM5,5EM6,5EM7,5EM8,5GNK,5HCX,5HCY,5HCZ,5HIB,5HIC,5UGB,5Y25,6D8E,6JZ0,6S89,6S8A,6VH4,6VHN,6VHP,7AEI,7AEM,7B85,7OXB,7SI1,7UKV,7ZYM,7ZYN,7ZYP,8A27,8A2A,8HY7

>  <UniProt (SwissProt) Recommended Name of Target Chain>  (26) 
Epidermal growth factor receptor

>  <UniProt (SwissProt) Entry Name of Target Chain>  (26) 
EGFR_HUMAN

>  <UniProt (SwissProt) Primary ID of Target Chain>  (26) 
P00533

>  <UniProt (SwissProt) Secondary ID(s) of Target Chain>  (26) 
O00688 O00732 P06268 Q14225 Q68GS5 Q92795 Q9BZS2 Q9GZX1 Q9H2C9 Q9H3C9 Q9UMD7 Q9UMD8 Q9UMG5

>  <UniProt (SwissProt) Alternative ID(s) of Target Chain>  (26) 


>  <UniProt (TrEMBL) Submitted Name of Target Chain>  (26) 


>  <UniProt (TrEMBL) Entry Name of Target Chain>  (26) 


>  <UniProt (TrEMBL) Primary ID of Target Chain>  (26) 


>  <UniProt (TrEMBL) Secondary ID(s) of Target Chain>  (26) 


>  <UniProt (TrEMBL) Alternative ID(s) of Target Chain>  (26) 


$$$$
Untitled Document-1
     RDKit          3D

 27 28  0  0  0  0  0  0  0  0999 V2000
   -1.4085   -0.6013   -0.0725 C   0  0  0  0  0  0  0  0  0  0  0  0
   -2.8073   -0.1258   -0.1387 C   0  0  0  0  0  0  0  0  0  0  0  0
   -3.2161    1.0640    0.5017 C   0  0  0  0  0  0  0  0  0  0  0  0
   -4.5503    1.4869    0.4005 C   0  0  0  0  0  0  0  0  0  0  0  0
   -5.4801    0.7253   -0.3105 C   0  0  0  0  0  0  0  0  0  0  0  0
   -5.0862   -0.4659   -0.9215 C   0  0  0  0  0  0  0  0  0  0  0  0
   -3.7588   -0.8931   -0.8330 C   0  0  0  0  0  0  0  0  0  0  0  0
   -1.1899   -1.8235    0.1482 O   0  0  0  0  0  0  0  0  0  0  0  0
   -0.3115    0.3104   -0.2627 N   0  0  0  0  0  0  0  0  0  0  0  0
   -2.3117    1.8080    1.2593 O   0  0  0  0  0  0  0  0  0  0  0  0
    1.0716   -0.0799   -0.2233 C   0  0  0  0  0  0  0  0  0  0  0  0
    2.0149    0.7700    0.3794 C   0  0  0  0  0  0  0  0  0  0  0  0
    3.3684    0.4172    0.4042 C   0  0  0  0  0  0  0  0  0  0  0  0
    3.7933   -0.7764   -0.1852 C   0  0  0  0  0  0  0  0  0  0  0  0
    2.8663   -1.6160   -0.8078 C   0  0  0  0  0  0  0  0  0  0  0  0
    1.5121   -1.2687   -0.8342 C   0  0  0  0  0  0  0  0  0  0  0  0
    5.1062   -1.1143   -0.1623 F   0  0  0  0  0  0  0  0  0  0  0  0
    1.6192    1.9318    0.9581 F   0  0  0  0  0  0  0  0  0  0  0  0
   -4.8702    2.4009    0.8846 H   0  0  0  0  0  0  0  0  0  0  0  0
   -6.5087    1.0549   -0.3811 H   0  0  0  0  0  0  0  0  0  0  0  0
   -5.8096   -1.0584   -1.4667 H   0  0  0  0  0  0  0  0  0  0  0  0
   -3.4696   -1.8161   -1.3210 H   0  0  0  0  0  0  0  0  0  0  0  0
   -0.5203    1.3251   -0.3941 H   0  0  0  0  0  0  0  0  0  0  0  0
   -2.5887    2.6600    1.7329 H   0  0  0  0  0  0  0  0  0  0  0  0
    4.0885    1.0709    0.8794 H   0  0  0  0  0  0  0  0  0  0  0  0
    3.1973   -2.5325   -1.2791 H   0  0  0  0  0  0  0  0  0  0  0  0
    0.8177   -1.9142   -1.3551 H   0  0  0  0  0  0  0  0  0  0  0  0
  1  2  1  0
  2  3  2  0
  3  4  1  0
  4  5  2  0
  5  6  1  0
  6  7  2  0
  2  7  1  0
  1  8  2  0
  1  9  1  0
  3 10  1  0
 11 12  2  0
 12 13  1  0
 13 14  2  0
 14 15  1  0
 15 16  2  0
 11 16  1  0
 14 17  1  0
 12 18  1  0
  9 11  1  0
  4 19  1  0
  5 20  1  0
  6 21  1  0
  7 22  1  0
  9 23  1  0
 10 24  1  0
 13 25  1  0
 15 26  1  0
 16 27  1  0
M  END
>  <From>  (27) 
www.bindingDB.org

>  <BindingDB Reactant_set_id>  (27) 
408351

>  <Ligand InChI>  (27) 
InChI=1S/C13H9F2NO2/c14-8-5-6-11(10(15)7-8)16-13(18)9-3-1-2-4-12(9)17/h1-7,17H,(H,16,18)

>  <Ligand InChI Key>  (27) 
ODTXYAGVNHCSKH-UHFFFAOYSA-N

>  <BindingDB MonomerID>  (27) 
234307

>  <BindingDB Ligand Name>  (27) 
N-(2,4-difluorophenyl)-2-hydroxybenzamide (8)

>  <Target Name>  (27) 
Epidermal growth factor receptor [645-1186]

>  <Target Source Organism According to Curator or DataSource>  (27) 


>  <Ki (nM)>  (27) 


>  <IC50 (nM)>  (27) 
 50000

>  <Kd (nM)>  (27) 


>  <EC50 (nM)>  (27) 


>  <kon (M-1-s-1)>  (27) 


>  <koff (s-1)>  (27) 


>  <pH>  (27) 
7.4

>  <Temp C>  (27) 
25.00

>  <Curation/DataSource>  (27) 
Curated from the literature by BindingDB

>  <Article DOI>  (27) 
10.3109/14756361003671060

>  <BindingDB Entry DOI>  (27) 
10.7270/Q2XW4HPN

>  <PMID>  (27) 
20583855

>  <PubChem AID>  (27) 
aid1802974

>  <Patent Number>  (27) 


>  <Authors>  (27) 
Zhu, ZW; Shi, L; Ruan, XM; Yang, Y; Li, HQ; Xu, SP; Zhu, HL

>  <Institution>  (27) 
Nanjing University

>  <Link to Ligand in BindingDB>  (27) 
http://www.bindingdb.org/bind/chemsearch/marvin/MolStructure.jsp?monomerid=234307

>  <Link to Ligand-Target Pair in BindingDB>  (27) 
http://www.bindingdb.org/jsp/dbsearch/PrimarySearch_ki.jsp?energyterm=kJ/mole&tag=r21&monomerid=234307&enzyme=Epidermal+growth+factor+receptor+%5B645-1186%5D&column=ki&startPg=0&Increment=50&submit=Search

>  <Ligand HET ID in PDB>  (27) 


>  <PDB ID(s) for Ligand-Target Complex>  (27) 


>  <PubChem CID of Ligand>  (27) 
28393775

>  <PubChem SID of Ligand>  (27) 
340094296

>  <ChEBI ID of Ligand>  (27) 


>  <ChEMBL ID of Ligand>  (27) 


>  <DrugBank ID of Ligand>  (27) 


>  <IUPHAR_GRAC ID of Ligand>  (27) 


>  <KEGG ID of Ligand>  (27) 


>  <ZINC ID of Ligand>  (27) 


>  <Number of Protein Chains in Target (bigger than 1 implies a multichain complex)>  (27) 
1

>  <BindingDB Target Chain Sequence>  (27) 
SIATGMVGALLLLLVVALGIGLFMRRRHIVRKRTLRRLLQERELVEPLTPSGEAPNQALLRILKETEFKKIKVLGSGAFGTVYKGLWIPEGEKVKIPVAIKELREATSPKANKEILDEAYVMASVDNPHVCRLLGICLTSTVQLITQLMPFGCLLDYVREHKDNIGSQYLLNWCVQIAKGMNYLEDRRLVHRDLAARNVLVKTPQHVKITDFGLAKLLGAEEKEYHAEGGKVPIKWMALESILHRIYTHQSDVWSYGVTVWELMTFGSKPYDGIPASEISSILEKGERLPQPPICTIDVYMIMVKCWMIDADSRPKFRELIIEFSKMARDPQRYLVIQGDERMHLPSPTDSNFYRALMDEEDMDDVVDADEYLIPQQGFFSSPSTSRTPLLSSLSATSNNSTVACIDRNGLQSCPIKEDSFLQRYSSDPTGALTEDSIDDTFLPVPEYINQSVPKRPAGSVQNPVYHNQPLNPAPSRDPHYQDPHSTAVGNPEYLNTVQPTCVNSTFDSPAHWAQKGSHQISLDNPDYQQDFFPKEAKPNGI

>  <PDB ID(s) of Target Chain>  (27) 
1M14,1M17,1XKK,1Z9I,2GS2,2GS6,2ITW,2ITX,2ITY,2J5E,2J5F,2J6M,2RF9,2RGP,3BEL,3GOP,3POZ,3VJO,3W2O,3W2P,3W2Q,3W2R,3W2S,3W32,3W33,4G5J,4I23,4JQ7,4JQ8,4JR3,4JRV,4LI5,4RJ4,4RJ5,4RJ6,4RJ7,4RJ8,4TKS,4WKQ,4WRG,4ZAU,5C8K,5C8M,5C8N,5CAL,5CAN,5CAO,5CAP,5CAQ,5CAS,5CAU,5CAV,5EDP,5EDQ,5EDR,5EM5,5EM6,5EM7,5EM8,5GNK,5HCX,5HCY,5HCZ,5HIB,5HIC,5UGB,5Y25,6D8E,6JZ0,6S89,6S8A,6VH4,6VHN,6VHP,7AEI,7AEM,7B85,7OXB,7SI1,7UKV,7ZYM,7ZYN,7ZYP,8A27,8A2A,8HY7

>  <UniProt (SwissProt) Recommended Name of Target Chain>  (27) 
Epidermal growth factor receptor

>  <UniProt (SwissProt) Entry Name of Target Chain>  (27) 
EGFR_HUMAN

>  <UniProt (SwissProt) Primary ID of Target Chain>  (27) 
P00533

>  <UniProt (SwissProt) Secondary ID(s) of Target Chain>  (27) 
O00688 O00732 P06268 Q14225 Q68GS5 Q92795 Q9BZS2 Q9GZX1 Q9H2C9 Q9H3C9 Q9UMD7 Q9UMD8 Q9UMG5

>  <UniProt (SwissProt) Alternative ID(s) of Target Chain>  (27) 


>  <UniProt (TrEMBL) Submitted Name of Target Chain>  (27) 


>  <UniProt (TrEMBL) Entry Name of Target Chain>  (27) 


>  <UniProt (TrEMBL) Primary ID of Target Chain>  (27) 


>  <UniProt (TrEMBL) Secondary ID(s) of Target Chain>  (27) 


>  <UniProt (TrEMBL) Alternative ID(s) of Target Chain>  (27) 


$$$$
Untitled Document-1
     RDKit          3D

 27 28  0  0  0  0  0  0  0  0999 V2000
   -1.4074   -0.6308   -0.0299 C   0  0  0  0  0  0  0  0  0  0  0  0
   -2.8028   -0.1603   -0.1576 C   0  0  0  0  0  0  0  0  0  0  0  0
   -3.7509   -0.8468   -0.9547 C   0  0  0  0  0  0  0  0  0  0  0  0
   -5.0774   -0.4002   -0.9927 C   0  0  0  0  0  0  0  0  0  0  0  0
   -5.4674    0.7284   -0.2698 C   0  0  0  0  0  0  0  0  0  0  0  0
   -4.5337    1.4204    0.5032 C   0  0  0  0  0  0  0  0  0  0  0  0
   -3.2091    0.9782    0.5612 C   0  0  0  0  0  0  0  0  0  0  0  0
   -1.1875   -1.8454    0.2278 O   0  0  0  0  0  0  0  0  0  0  0  0
   -0.3148    0.2990   -0.1322 N   0  0  0  0  0  0  0  0  0  0  0  0
   -5.1263    3.1230    1.5981 I   0  0  0  0  0  0  0  0  0  0  0  0
   -3.4068   -1.9516   -1.7367 O   0  0  0  0  0  0  0  0  0  0  0  0
    1.0697   -0.0875   -0.1619 C   0  0  0  0  0  0  0  0  0  0  0  0
    2.0306    0.7520    0.4235 C   0  0  0  0  0  0  0  0  0  0  0  0
    3.3860    0.4100    0.3875 C   0  0  0  0  0  0  0  0  0  0  0  0
    3.7950   -0.7657   -0.2475 C   0  0  0  0  0  0  0  0  0  0  0  0
    2.8491   -1.5962   -0.8547 C   0  0  0  0  0  0  0  0  0  0  0  0
    1.4925   -1.2579   -0.8198 C   0  0  0  0  0  0  0  0  0  0  0  0
    5.1097   -1.0947   -0.2844 F   0  0  0  0  0  0  0  0  0  0  0  0
   -5.8065   -0.9237   -1.5982 H   0  0  0  0  0  0  0  0  0  0  0  0
   -6.4948    1.0661   -0.3132 H   0  0  0  0  0  0  0  0  0  0  0  0
   -2.5057    1.5095    1.1901 H   0  0  0  0  0  0  0  0  0  0  0  0
   -0.5303    1.3214   -0.1295 H   0  0  0  0  0  0  0  0  0  0  0  0
   -2.4555   -2.2768   -1.8476 H   0  0  0  0  0  0  0  0  0  0  0  0
    1.7262    1.6667    0.9167 H   0  0  0  0  0  0  0  0  0  0  0  0
    4.1186    1.0586    0.8504 H   0  0  0  0  0  0  0  0  0  0  0  0
    3.1670   -2.4983   -1.3614 H   0  0  0  0  0  0  0  0  0  0  0  0
    0.7826   -1.8956   -1.3292 H   0  0  0  0  0  0  0  0  0  0  0  0
  1  2  1  0
  2  3  2  0
  3  4  1  0
  4  5  2  0
  5  6  1  0
  6  7  2  0
  2  7  1  0
  1  8  2  0
  1  9  1  0
  6 10  1  0
  3 11  1  0
 12 13  2  0
 13 14  1  0
 14 15  2  0
 15 16  1  0
 16 17  2  0
 12 17  1  0
 15 18  1  0
  9 12  1  0
  4 19  1  0
  5 20  1  0
  7 21  1  0
  9 22  1  0
 11 23  1  0
 13 24  1  0
 14 25  1  0
 16 26  1  0
 17 27  1  0
M  END
>  <From>  (28) 
www.bindingDB.org

>  <BindingDB Reactant_set_id>  (28) 
408366

>  <Ligand InChI>  (28) 
InChI=1S/C13H9FINO2/c14-8-1-4-10(5-2-8)16-13(18)11-7-9(15)3-6-12(11)17/h1-7,17H,(H,16,18)

>  <Ligand InChI Key>  (28) 
KNBXEFXDDUIVBJ-UHFFFAOYSA-N

>  <BindingDB MonomerID>  (28) 
234321

>  <BindingDB Ligand Name>  (28) 
N-(4-fluorophenyl)-2-hydroxy-5-iodobenzamide (23)

>  <Target Name>  (28) 
Epidermal growth factor receptor [645-1186]

>  <Target Source Organism According to Curator or DataSource>  (28) 


>  <Ki (nM)>  (28) 


>  <IC50 (nM)>  (28) 
 50000

>  <Kd (nM)>  (28) 


>  <EC50 (nM)>  (28) 


>  <kon (M-1-s-1)>  (28) 


>  <koff (s-1)>  (28) 


>  <pH>  (28) 
7.4

>  <Temp C>  (28) 
25.00

>  <Curation/DataSource>  (28) 
Curated from the literature by BindingDB

>  <Article DOI>  (28) 
10.3109/14756361003671060

>  <BindingDB Entry DOI>  (28) 
10.7270/Q2XW4HPN

>  <PMID>  (28) 
20583855

>  <PubChem AID>  (28) 
aid1802974

>  <Patent Number>  (28) 


>  <Authors>  (28) 
Zhu, ZW; Shi, L; Ruan, XM; Yang, Y; Li, HQ; Xu, SP; Zhu, HL

>  <Institution>  (28) 
Nanjing University

>  <Link to Ligand in BindingDB>  (28) 
http://www.bindingdb.org/bind/chemsearch/marvin/MolStructure.jsp?monomerid=234321

>  <Link to Ligand-Target Pair in BindingDB>  (28) 
http://www.bindingdb.org/jsp/dbsearch/PrimarySearch_ki.jsp?energyterm=kJ/mole&tag=r21&monomerid=234321&enzyme=Epidermal+growth+factor+receptor+%5B645-1186%5D&column=ki&startPg=0&Increment=50&submit=Search

>  <Ligand HET ID in PDB>  (28) 


>  <PDB ID(s) for Ligand-Target Complex>  (28) 


>  <PubChem CID of Ligand>  (28) 
42052185

>  <PubChem SID of Ligand>  (28) 
340094310

>  <ChEBI ID of Ligand>  (28) 


>  <ChEMBL ID of Ligand>  (28) 


>  <DrugBank ID of Ligand>  (28) 


>  <IUPHAR_GRAC ID of Ligand>  (28) 


>  <KEGG ID of Ligand>  (28) 


>  <ZINC ID of Ligand>  (28) 


>  <Number of Protein Chains in Target (bigger than 1 implies a multichain complex)>  (28) 
1

>  <BindingDB Target Chain Sequence>  (28) 
SIATGMVGALLLLLVVALGIGLFMRRRHIVRKRTLRRLLQERELVEPLTPSGEAPNQALLRILKETEFKKIKVLGSGAFGTVYKGLWIPEGEKVKIPVAIKELREATSPKANKEILDEAYVMASVDNPHVCRLLGICLTSTVQLITQLMPFGCLLDYVREHKDNIGSQYLLNWCVQIAKGMNYLEDRRLVHRDLAARNVLVKTPQHVKITDFGLAKLLGAEEKEYHAEGGKVPIKWMALESILHRIYTHQSDVWSYGVTVWELMTFGSKPYDGIPASEISSILEKGERLPQPPICTIDVYMIMVKCWMIDADSRPKFRELIIEFSKMARDPQRYLVIQGDERMHLPSPTDSNFYRALMDEEDMDDVVDADEYLIPQQGFFSSPSTSRTPLLSSLSATSNNSTVACIDRNGLQSCPIKEDSFLQRYSSDPTGALTEDSIDDTFLPVPEYINQSVPKRPAGSVQNPVYHNQPLNPAPSRDPHYQDPHSTAVGNPEYLNTVQPTCVNSTFDSPAHWAQKGSHQISLDNPDYQQDFFPKEAKPNGI

>  <PDB ID(s) of Target Chain>  (28) 
1M14,1M17,1XKK,1Z9I,2GS2,2GS6,2ITW,2ITX,2ITY,2J5E,2J5F,2J6M,2RF9,2RGP,3BEL,3GOP,3POZ,3VJO,3W2O,3W2P,3W2Q,3W2R,3W2S,3W32,3W33,4G5J,4I23,4JQ7,4JQ8,4JR3,4JRV,4LI5,4RJ4,4RJ5,4RJ6,4RJ7,4RJ8,4TKS,4WKQ,4WRG,4ZAU,5C8K,5C8M,5C8N,5CAL,5CAN,5CAO,5CAP,5CAQ,5CAS,5CAU,5CAV,5EDP,5EDQ,5EDR,5EM5,5EM6,5EM7,5EM8,5GNK,5HCX,5HCY,5HCZ,5HIB,5HIC,5UGB,5Y25,6D8E,6JZ0,6S89,6S8A,6VH4,6VHN,6VHP,7AEI,7AEM,7B85,7OXB,7SI1,7UKV,7ZYM,7ZYN,7ZYP,8A27,8A2A,8HY7

>  <UniProt (SwissProt) Recommended Name of Target Chain>  (28) 
Epidermal growth factor receptor

>  <UniProt (SwissProt) Entry Name of Target Chain>  (28) 
EGFR_HUMAN

>  <UniProt (SwissProt) Primary ID of Target Chain>  (28) 
P00533

>  <UniProt (SwissProt) Secondary ID(s) of Target Chain>  (28) 
O00688 O00732 P06268 Q14225 Q68GS5 Q92795 Q9BZS2 Q9GZX1 Q9H2C9 Q9H3C9 Q9UMD7 Q9UMD8 Q9UMG5

>  <UniProt (SwissProt) Alternative ID(s) of Target Chain>  (28) 


>  <UniProt (TrEMBL) Submitted Name of Target Chain>  (28) 


>  <UniProt (TrEMBL) Entry Name of Target Chain>  (28) 


>  <UniProt (TrEMBL) Primary ID of Target Chain>  (28) 


>  <UniProt (TrEMBL) Secondary ID(s) of Target Chain>  (28) 


>  <UniProt (TrEMBL) Alternative ID(s) of Target Chain>  (28) 


$$$$
Untitled Document-1
     RDKit          3D

 39 40  0  0  0  0  0  0  0  0999 V2000
   -1.3604   -0.3975   -0.5500 C   0  0  0  0  0  0  0  0  0  0  0  0
   -2.7900   -0.1254   -0.2915 C   0  0  0  0  0  0  0  0  0  0  0  0
   -3.7656   -1.1494   -0.3464 C   0  0  0  0  0  0  0  0  0  0  0  0
   -5.1165   -0.8324   -0.1589 C   0  0  0  0  0  0  0  0  0  0  0  0
   -5.5124    0.4834    0.1178 C   0  0  0  0  0  0  0  0  0  0  0  0
   -4.5459    1.4953    0.1718 C   0  0  0  0  0  0  0  0  0  0  0  0
   -3.1971    1.1931   -0.0262 C   0  0  0  0  0  0  0  0  0  0  0  0
   -1.0339   -1.0635   -1.5698 O   0  0  0  0  0  0  0  0  0  0  0  0
   -0.3490    0.1480    0.3149 N   0  0  0  0  0  0  0  0  0  0  0  0
   -6.9656    0.8163    0.2852 C   0  0  0  0  0  0  0  0  0  0  0  0
    1.0479   -0.1804    0.2252 C   0  0  0  0  0  0  0  0  0  0  0  0
    2.0042    0.7966    0.5335 C   0  0  0  0  0  0  0  0  0  0  0  0
    3.3682    0.4983    0.4764 C   0  0  0  0  0  0  0  0  0  0  0  0
    3.8025   -0.7928    0.1236 C   0  0  0  0  0  0  0  0  0  0  0  0
    2.8414   -1.7780   -0.1597 C   0  0  0  0  0  0  0  0  0  0  0  0
    1.4774   -1.4776   -0.1033 C   0  0  0  0  0  0  0  0  0  0  0  0
    5.2798   -1.1328    0.0594 C   0  0  0  0  0  0  0  0  0  0  0  0
    5.9420   -0.9790    1.4337 C   0  0  0  0  0  0  0  0  0  0  0  0
    5.9974   -0.2841   -0.9969 C   0  0  0  0  0  0  0  0  0  0  0  0
   -3.4289   -2.4881   -0.5593 O   0  0  0  0  0  0  0  0  0  0  0  0
   -5.8581   -1.6203   -0.2149 H   0  0  0  0  0  0  0  0  0  0  0  0
   -4.8371    2.5217    0.3586 H   0  0  0  0  0  0  0  0  0  0  0  0
   -2.4737    1.9987   -0.0020 H   0  0  0  0  0  0  0  0  0  0  0  0
   -0.6314    0.8690    1.0166 H   0  0  0  0  0  0  0  0  0  0  0  0
   -7.4057    1.0561   -0.7052 H   0  0  0  0  0  0  0  0  0  0  0  0
   -7.5154   -0.0414    0.7282 H   0  0  0  0  0  0  0  0  0  0  0  0
   -7.0929    1.6899    0.9595 H   0  0  0  0  0  0  0  0  0  0  0  0
    1.6906    1.7959    0.8087 H   0  0  0  0  0  0  0  0  0  0  0  0
    4.0834    1.2762    0.7101 H   0  0  0  0  0  0  0  0  0  0  0  0
    3.1453   -2.7852   -0.4167 H   0  0  0  0  0  0  0  0  0  0  0  0
    0.7620   -2.2672   -0.2901 H   0  0  0  0  0  0  0  0  0  0  0  0
    5.4018   -2.1972   -0.2427 H   0  0  0  0  0  0  0  0  0  0  0  0
    5.9287    0.0798    1.7690 H   0  0  0  0  0  0  0  0  0  0  0  0
    5.4089   -1.6007    2.1846 H   0  0  0  0  0  0  0  0  0  0  0  0
    6.9980   -1.3210    1.3872 H   0  0  0  0  0  0  0  0  0  0  0  0
    7.0536   -0.6141   -1.0959 H   0  0  0  0  0  0  0  0  0  0  0  0
    5.5020   -0.4062   -1.9839 H   0  0  0  0  0  0  0  0  0  0  0  0
    5.9889    0.7917   -0.7211 H   0  0  0  0  0  0  0  0  0  0  0  0
   -2.4741   -2.8192   -0.6020 H   0  0  0  0  0  0  0  0  0  0  0  0
  1  2  1  0
  2  3  2  0
  3  4  1  0
  4  5  2  0
  5  6  1  0
  6  7  2  0
  2  7  1  0
  1  8  2  0
  1  9  1  0
  5 10  1  0
 11 12  2  0
 12 13  1  0
 13 14  2  0
 14 15  1  0
 15 16  2  0
 11 16  1  0
 17 18  1  0
 17 19  1  0
 14 17  1  0
  9 11  1  0
  3 20  1  0
  4 21  1  0
  6 22  1  0
  7 23  1  0
  9 24  1  0
 10 25  1  0
 10 26  1  0
 10 27  1  0
 12 28  1  0
 13 29  1  0
 15 30  1  0
 16 31  1  0
 17 32  1  0
 18 33  1  0
 18 34  1  0
 18 35  1  0
 19 36  1  0
 19 37  1  0
 19 38  1  0
 20 39  1  0
M  END
>  <From>  (29) 
www.bindingDB.org

>  <BindingDB Reactant_set_id>  (29) 
408363

>  <Ligand InChI>  (29) 
InChI=1S/C17H19NO2/c1-11(2)13-5-7-14(8-6-13)18-17(20)15-9-4-12(3)10-16(15)19/h4-11,19H,1-3H3,(H,18,20)

>  <Ligand InChI Key>  (29) 
ZXKHSBAKJHMPQB-UHFFFAOYSA-N

>  <BindingDB MonomerID>  (29) 
234318

>  <BindingDB Ligand Name>  (29) 
2-Hydroxy-N-(4-isopropylphenyl)-4-methylbenzamide (20)

>  <Target Name>  (29) 
Epidermal growth factor receptor [645-1186]

>  <Target Source Organism According to Curator or DataSource>  (29) 


>  <Ki (nM)>  (29) 


>  <IC50 (nM)>  (29) 
 50000

>  <Kd (nM)>  (29) 


>  <EC50 (nM)>  (29) 


>  <kon (M-1-s-1)>  (29) 


>  <koff (s-1)>  (29) 


>  <pH>  (29) 
7.4

>  <Temp C>  (29) 
25.00

>  <Curation/DataSource>  (29) 
Curated from the literature by BindingDB

>  <Article DOI>  (29) 
10.3109/14756361003671060

>  <BindingDB Entry DOI>  (29) 
10.7270/Q2XW4HPN

>  <PMID>  (29) 
20583855

>  <PubChem AID>  (29) 
aid1802974

>  <Patent Number>  (29) 


>  <Authors>  (29) 
Zhu, ZW; Shi, L; Ruan, XM; Yang, Y; Li, HQ; Xu, SP; Zhu, HL

>  <Institution>  (29) 
Nanjing University

>  <Link to Ligand in BindingDB>  (29) 
http://www.bindingdb.org/bind/chemsearch/marvin/MolStructure.jsp?monomerid=234318

>  <Link to Ligand-Target Pair in BindingDB>  (29) 
http://www.bindingdb.org/jsp/dbsearch/PrimarySearch_ki.jsp?energyterm=kJ/mole&tag=r21&monomerid=234318&enzyme=Epidermal+growth+factor+receptor+%5B645-1186%5D&column=ki&startPg=0&Increment=50&submit=Search

>  <Ligand HET ID in PDB>  (29) 


>  <PDB ID(s) for Ligand-Target Complex>  (29) 


>  <PubChem CID of Ligand>  (29) 
29798976

>  <PubChem SID of Ligand>  (29) 
340094307

>  <ChEBI ID of Ligand>  (29) 


>  <ChEMBL ID of Ligand>  (29) 


>  <DrugBank ID of Ligand>  (29) 


>  <IUPHAR_GRAC ID of Ligand>  (29) 


>  <KEGG ID of Ligand>  (29) 


>  <ZINC ID of Ligand>  (29) 


>  <Number of Protein Chains in Target (bigger than 1 implies a multichain complex)>  (29) 
1

>  <BindingDB Target Chain Sequence>  (29) 
SIATGMVGALLLLLVVALGIGLFMRRRHIVRKRTLRRLLQERELVEPLTPSGEAPNQALLRILKETEFKKIKVLGSGAFGTVYKGLWIPEGEKVKIPVAIKELREATSPKANKEILDEAYVMASVDNPHVCRLLGICLTSTVQLITQLMPFGCLLDYVREHKDNIGSQYLLNWCVQIAKGMNYLEDRRLVHRDLAARNVLVKTPQHVKITDFGLAKLLGAEEKEYHAEGGKVPIKWMALESILHRIYTHQSDVWSYGVTVWELMTFGSKPYDGIPASEISSILEKGERLPQPPICTIDVYMIMVKCWMIDADSRPKFRELIIEFSKMARDPQRYLVIQGDERMHLPSPTDSNFYRALMDEEDMDDVVDADEYLIPQQGFFSSPSTSRTPLLSSLSATSNNSTVACIDRNGLQSCPIKEDSFLQRYSSDPTGALTEDSIDDTFLPVPEYINQSVPKRPAGSVQNPVYHNQPLNPAPSRDPHYQDPHSTAVGNPEYLNTVQPTCVNSTFDSPAHWAQKGSHQISLDNPDYQQDFFPKEAKPNGI

>  <PDB ID(s) of Target Chain>  (29) 
1M14,1M17,1XKK,1Z9I,2GS2,2GS6,2ITW,2ITX,2ITY,2J5E,2J5F,2J6M,2RF9,2RGP,3BEL,3GOP,3POZ,3VJO,3W2O,3W2P,3W2Q,3W2R,3W2S,3W32,3W33,4G5J,4I23,4JQ7,4JQ8,4JR3,4JRV,4LI5,4RJ4,4RJ5,4RJ6,4RJ7,4RJ8,4TKS,4WKQ,4WRG,4ZAU,5C8K,5C8M,5C8N,5CAL,5CAN,5CAO,5CAP,5CAQ,5CAS,5CAU,5CAV,5EDP,5EDQ,5EDR,5EM5,5EM6,5EM7,5EM8,5GNK,5HCX,5HCY,5HCZ,5HIB,5HIC,5UGB,5Y25,6D8E,6JZ0,6S89,6S8A,6VH4,6VHN,6VHP,7AEI,7AEM,7B85,7OXB,7SI1,7UKV,7ZYM,7ZYN,7ZYP,8A27,8A2A,8HY7

>  <UniProt (SwissProt) Recommended Name of Target Chain>  (29) 
Epidermal growth factor receptor

>  <UniProt (SwissProt) Entry Name of Target Chain>  (29) 
EGFR_HUMAN

>  <UniProt (SwissProt) Primary ID of Target Chain>  (29) 
P00533

>  <UniProt (SwissProt) Secondary ID(s) of Target Chain>  (29) 
O00688 O00732 P06268 Q14225 Q68GS5 Q92795 Q9BZS2 Q9GZX1 Q9H2C9 Q9H3C9 Q9UMD7 Q9UMD8 Q9UMG5

>  <UniProt (SwissProt) Alternative ID(s) of Target Chain>  (29) 


>  <UniProt (TrEMBL) Submitted Name of Target Chain>  (29) 


>  <UniProt (TrEMBL) Entry Name of Target Chain>  (29) 


>  <UniProt (TrEMBL) Primary ID of Target Chain>  (29) 


>  <UniProt (TrEMBL) Secondary ID(s) of Target Chain>  (29) 


>  <UniProt (TrEMBL) Alternative ID(s) of Target Chain>  (29) 


$$$$
Untitled Document-1
     RDKit          3D

 30 31  0  0  0  0  0  0  0  0999 V2000
   -0.3588    0.0266    0.5206 C   0  0  0  0  0  0  0  0  0  0  0  0
    1.0679   -0.2070    0.2129 C   0  0  0  0  0  0  0  0  0  0  0  0
    2.0524    0.7834    0.4436 C   0  0  0  0  0  0  0  0  0  0  0  0
    3.4002    0.4933    0.1986 C   0  0  0  0  0  0  0  0  0  0  0  0
    3.7840   -0.7565   -0.3068 C   0  0  0  0  0  0  0  0  0  0  0  0
    2.8087   -1.7351   -0.5349 C   0  0  0  0  0  0  0  0  0  0  0  0
    1.4630   -1.4613   -0.2820 C   0  0  0  0  0  0  0  0  0  0  0  0
   -0.6777    0.5089    1.6412 O   0  0  0  0  0  0  0  0  0  0  0  0
   -1.3769   -0.3536   -0.4215 N   0  0  0  0  0  0  0  0  0  0  0  0
    5.2339   -1.0666   -0.5352 C   0  0  0  0  0  0  0  0  0  0  0  0
    1.7279    2.0666    0.8896 O   0  0  0  0  0  0  0  0  0  0  0  0
   -2.7720   -0.0428   -0.2622 C   0  0  0  0  0  0  0  0  0  0  0  0
   -3.7429   -0.9591   -0.7029 C   0  0  0  0  0  0  0  0  0  0  0  0
   -5.1037   -0.6604   -0.5769 C   0  0  0  0  0  0  0  0  0  0  0  0
   -5.5068    0.5586   -0.0255 C   0  0  0  0  0  0  0  0  0  0  0  0
   -4.5491    1.4851    0.3945 C   0  0  0  0  0  0  0  0  0  0  0  0
   -3.1876    1.1913    0.2720 C   0  0  0  0  0  0  0  0  0  0  0  0
   -6.8264    0.8463    0.0928 F   0  0  0  0  0  0  0  0  0  0  0  0
   -3.3701   -2.1486   -1.2387 F   0  0  0  0  0  0  0  0  0  0  0  0
    4.1487    1.2529    0.3898 H   0  0  0  0  0  0  0  0  0  0  0  0
    3.0906   -2.7149   -0.9006 H   0  0  0  0  0  0  0  0  0  0  0  0
    0.7324   -2.2440   -0.4453 H   0  0  0  0  0  0  0  0  0  0  0  0
   -1.0990   -0.9303   -1.2472 H   0  0  0  0  0  0  0  0  0  0  0  0
    5.7904   -0.1490   -0.8222 H   0  0  0  0  0  0  0  0  0  0  0  0
    5.3523   -1.8090   -1.3532 H   0  0  0  0  0  0  0  0  0  0  0  0
    5.6739   -1.4806    0.3959 H   0  0  0  0  0  0  0  0  0  0  0  0
    0.7761    2.3933    0.9923 H   0  0  0  0  0  0  0  0  0  0  0  0
   -5.8465   -1.3745   -0.9087 H   0  0  0  0  0  0  0  0  0  0  0  0
   -4.8607    2.4361    0.8071 H   0  0  0  0  0  0  0  0  0  0  0  0
   -2.4637    1.9381    0.5697 H   0  0  0  0  0  0  0  0  0  0  0  0
  1  2  1  0
  2  3  2  0
  3  4  1  0
  4  5  2  0
  5  6  1  0
  6  7  2  0
  2  7  1  0
  1  8  2  0
  1  9  1  0
  5 10  1  0
  3 11  1  0
 12 13  2  0
 13 14  1  0
 14 15  2  0
 15 16  1  0
 16 17  2  0
 12 17  1  0
 15 18  1  0
 13 19  1  0
  9 12  1  0
  4 20  1  0
  6 21  1  0
  7 22  1  0
  9 23  1  0
 10 24  1  0
 10 25  1  0
 10 26  1  0
 11 27  1  0
 14 28  1  0
 16 29  1  0
 17 30  1  0
M  END
>  <From>  (30) 
www.bindingDB.org

>  <BindingDB Reactant_set_id>  (30) 
408360

>  <Ligand InChI>  (30) 
InChI=1S/C14H11F2NO2/c1-8-2-4-10(13(18)6-8)14(19)17-12-5-3-9(15)7-11(12)16/h2-7,18H,1H3,(H,17,19)

>  <Ligand InChI Key>  (30) 
IUWNPBOWBUZUBZ-UHFFFAOYSA-N

>  <BindingDB MonomerID>  (30) 
234315

>  <BindingDB Ligand Name>  (30) 
N-(2,4-difluorophenyl)-2-hydroxy-4-methylbenzamide (17)

>  <Target Name>  (30) 
Epidermal growth factor receptor [645-1186]

>  <Target Source Organism According to Curator or DataSource>  (30) 


>  <Ki (nM)>  (30) 


>  <IC50 (nM)>  (30) 
 50000

>  <Kd (nM)>  (30) 


>  <EC50 (nM)>  (30) 


>  <kon (M-1-s-1)>  (30) 


>  <koff (s-1)>  (30) 


>  <pH>  (30) 
7.4

>  <Temp C>  (30) 
25.00

>  <Curation/DataSource>  (30) 
Curated from the literature by BindingDB

>  <Article DOI>  (30) 
10.3109/14756361003671060

>  <BindingDB Entry DOI>  (30) 
10.7270/Q2XW4HPN

>  <PMID>  (30) 
20583855

>  <PubChem AID>  (30) 
aid1802974

>  <Patent Number>  (30) 


>  <Authors>  (30) 
Zhu, ZW; Shi, L; Ruan, XM; Yang, Y; Li, HQ; Xu, SP; Zhu, HL

>  <Institution>  (30) 
Nanjing University

>  <Link to Ligand in BindingDB>  (30) 
http://www.bindingdb.org/bind/chemsearch/marvin/MolStructure.jsp?monomerid=234315

>  <Link to Ligand-Target Pair in BindingDB>  (30) 
http://www.bindingdb.org/jsp/dbsearch/PrimarySearch_ki.jsp?energyterm=kJ/mole&tag=r21&monomerid=234315&enzyme=Epidermal+growth+factor+receptor+%5B645-1186%5D&column=ki&startPg=0&Increment=50&submit=Search

>  <Ligand HET ID in PDB>  (30) 


>  <PDB ID(s) for Ligand-Target Complex>  (30) 


>  <PubChem CID of Ligand>  (30) 
28393800

>  <PubChem SID of Ligand>  (30) 
340094304

>  <ChEBI ID of Ligand>  (30) 


>  <ChEMBL ID of Ligand>  (30) 


>  <DrugBank ID of Ligand>  (30) 


>  <IUPHAR_GRAC ID of Ligand>  (30) 


>  <KEGG ID of Ligand>  (30) 


>  <ZINC ID of Ligand>  (30) 


>  <Number of Protein Chains in Target (bigger than 1 implies a multichain complex)>  (30) 
1

>  <BindingDB Target Chain Sequence>  (30) 
SIATGMVGALLLLLVVALGIGLFMRRRHIVRKRTLRRLLQERELVEPLTPSGEAPNQALLRILKETEFKKIKVLGSGAFGTVYKGLWIPEGEKVKIPVAIKELREATSPKANKEILDEAYVMASVDNPHVCRLLGICLTSTVQLITQLMPFGCLLDYVREHKDNIGSQYLLNWCVQIAKGMNYLEDRRLVHRDLAARNVLVKTPQHVKITDFGLAKLLGAEEKEYHAEGGKVPIKWMALESILHRIYTHQSDVWSYGVTVWELMTFGSKPYDGIPASEISSILEKGERLPQPPICTIDVYMIMVKCWMIDADSRPKFRELIIEFSKMARDPQRYLVIQGDERMHLPSPTDSNFYRALMDEEDMDDVVDADEYLIPQQGFFSSPSTSRTPLLSSLSATSNNSTVACIDRNGLQSCPIKEDSFLQRYSSDPTGALTEDSIDDTFLPVPEYINQSVPKRPAGSVQNPVYHNQPLNPAPSRDPHYQDPHSTAVGNPEYLNTVQPTCVNSTFDSPAHWAQKGSHQISLDNPDYQQDFFPKEAKPNGI

>  <PDB ID(s) of Target Chain>  (30) 
1M14,1M17,1XKK,1Z9I,2GS2,2GS6,2ITW,2ITX,2ITY,2J5E,2J5F,2J6M,2RF9,2RGP,3BEL,3GOP,3POZ,3VJO,3W2O,3W2P,3W2Q,3W2R,3W2S,3W32,3W33,4G5J,4I23,4JQ7,4JQ8,4JR3,4JRV,4LI5,4RJ4,4RJ5,4RJ6,4RJ7,4RJ8,4TKS,4WKQ,4WRG,4ZAU,5C8K,5C8M,5C8N,5CAL,5CAN,5CAO,5CAP,5CAQ,5CAS,5CAU,5CAV,5EDP,5EDQ,5EDR,5EM5,5EM6,5EM7,5EM8,5GNK,5HCX,5HCY,5HCZ,5HIB,5HIC,5UGB,5Y25,6D8E,6JZ0,6S89,6S8A,6VH4,6VHN,6VHP,7AEI,7AEM,7B85,7OXB,7SI1,7UKV,7ZYM,7ZYN,7ZYP,8A27,8A2A,8HY7

>  <UniProt (SwissProt) Recommended Name of Target Chain>  (30) 
Epidermal growth factor receptor

>  <UniProt (SwissProt) Entry Name of Target Chain>  (30) 
EGFR_HUMAN

>  <UniProt (SwissProt) Primary ID of Target Chain>  (30) 
P00533

>  <UniProt (SwissProt) Secondary ID(s) of Target Chain>  (30) 
O00688 O00732 P06268 Q14225 Q68GS5 Q92795 Q9BZS2 Q9GZX1 Q9H2C9 Q9H3C9 Q9UMD7 Q9UMD8 Q9UMG5

>  <UniProt (SwissProt) Alternative ID(s) of Target Chain>  (30) 


>  <UniProt (TrEMBL) Submitted Name of Target Chain>  (30) 


>  <UniProt (TrEMBL) Entry Name of Target Chain>  (30) 


>  <UniProt (TrEMBL) Primary ID of Target Chain>  (30) 


>  <UniProt (TrEMBL) Secondary ID(s) of Target Chain>  (30) 


>  <UniProt (TrEMBL) Alternative ID(s) of Target Chain>  (30) 


$$$$
Untitled Document-1
     RDKit          3D

 30 31  0  0  0  0  0  0  0  0999 V2000
   -0.3152    0.4285   -0.3697 C   0  0  0  0  0  0  0  0  0  0  0  0
    1.0886   -0.0291   -0.2871 C   0  0  0  0  0  0  0  0  0  0  0  0
    1.4901   -1.2802   -0.7996 C   0  0  0  0  0  0  0  0  0  0  0  0
    2.8290   -1.6841   -0.6865 C   0  0  0  0  0  0  0  0  0  0  0  0
    3.7766   -0.8494   -0.0774 C   0  0  0  0  0  0  0  0  0  0  0  0
    3.3840    0.4125    0.3880 C   0  0  0  0  0  0  0  0  0  0  0  0
    2.0514    0.8182    0.2854 C   0  0  0  0  0  0  0  0  0  0  0  0
   -0.5494    1.6138   -0.7309 O   0  0  0  0  0  0  0  0  0  0  0  0
   -1.3989   -0.4588   -0.0389 N   0  0  0  0  0  0  0  0  0  0  0  0
   -2.7859   -0.0826   -0.0705 C   0  0  0  0  0  0  0  0  0  0  0  0
   -3.7404   -1.0156   -0.5049 C   0  0  0  0  0  0  0  0  0  0  0  0
   -5.0985   -0.6832   -0.5224 C   0  0  0  0  0  0  0  0  0  0  0  0
   -5.5160    0.5781   -0.0902 C   0  0  0  0  0  0  0  0  0  0  0  0
   -4.5767    1.5052    0.3685 C   0  0  0  0  0  0  0  0  0  0  0  0
   -3.2173    1.1768    0.3865 C   0  0  0  0  0  0  0  0  0  0  0  0
    5.2147   -1.2693    0.0001 C   0  0  0  0  0  0  0  0  0  0  0  0
    0.5723   -2.1073   -1.4471 O   0  0  0  0  0  0  0  0  0  0  0  0
    3.1328   -2.6447   -1.0846 H   0  0  0  0  0  0  0  0  0  0  0  0
    4.1090    1.0821    0.8342 H   0  0  0  0  0  0  0  0  0  0  0  0
    1.7678    1.7919    0.6663 H   0  0  0  0  0  0  0  0  0  0  0  0
   -1.1794   -1.4539    0.1900 H   0  0  0  0  0  0  0  0  0  0  0  0
   -3.4286   -1.9970   -0.8399 H   0  0  0  0  0  0  0  0  0  0  0  0
   -5.8274   -1.4045   -0.8687 H   0  0  0  0  0  0  0  0  0  0  0  0
   -6.5677    0.8335   -0.1017 H   0  0  0  0  0  0  0  0  0  0  0  0
   -4.9031    2.4755    0.7199 H   0  0  0  0  0  0  0  0  0  0  0  0
   -2.5126    1.8948    0.7835 H   0  0  0  0  0  0  0  0  0  0  0  0
    5.2956   -2.3730    0.0965 H   0  0  0  0  0  0  0  0  0  0  0  0
    5.7437   -0.9463   -0.9207 H   0  0  0  0  0  0  0  0  0  0  0  0
    5.7101   -0.8109    0.8825 H   0  0  0  0  0  0  0  0  0  0  0  0
    0.8428   -3.0057   -1.8299 H   0  0  0  0  0  0  0  0  0  0  0  0
  1  2  1  0
  2  3  2  0
  3  4  1  0
  4  5  2  0
  5  6  1  0
  6  7  2  0
  2  7  1  0
  1  8  2  0
  1  9  1  0
 10 11  2  0
 11 12  1  0
 12 13  2  0
 13 14  1  0
 14 15  2  0
 10 15  1  0
  9 10  1  0
  5 16  1  0
  3 17  1  0
  4 18  1  0
  6 19  1  0
  7 20  1  0
  9 21  1  0
 11 22  1  0
 12 23  1  0
 13 24  1  0
 14 25  1  0
 15 26  1  0
 16 27  1  0
 16 28  1  0
 16 29  1  0
 17 30  1  0
M  END
>  <From>  (31) 
www.bindingDB.org

>  <BindingDB Reactant_set_id>  (31) 
408356

>  <Ligand InChI>  (31) 
InChI=1S/C14H13NO2/c1-10-7-8-12(13(16)9-10)14(17)15-11-5-3-2-4-6-11/h2-9,16H,1H3,(H,15,17)

>  <Ligand InChI Key>  (31) 
ILTDMZSEFBIATD-UHFFFAOYSA-N

>  <BindingDB MonomerID>  (31) 
234311

>  <BindingDB Ligand Name>  (31) 
2-Hydroxy-4-methyl-N-phenylbenzamide (13)

>  <Target Name>  (31) 
Epidermal growth factor receptor [645-1186]

>  <Target Source Organism According to Curator or DataSource>  (31) 


>  <Ki (nM)>  (31) 


>  <IC50 (nM)>  (31) 
 50000

>  <Kd (nM)>  (31) 


>  <EC50 (nM)>  (31) 


>  <kon (M-1-s-1)>  (31) 


>  <koff (s-1)>  (31) 


>  <pH>  (31) 
7.4

>  <Temp C>  (31) 
25.00

>  <Curation/DataSource>  (31) 
Curated from the literature by BindingDB

>  <Article DOI>  (31) 
10.3109/14756361003671060

>  <BindingDB Entry DOI>  (31) 
10.7270/Q2XW4HPN

>  <PMID>  (31) 
20583855

>  <PubChem AID>  (31) 
aid1802974

>  <Patent Number>  (31) 


>  <Authors>  (31) 
Zhu, ZW; Shi, L; Ruan, XM; Yang, Y; Li, HQ; Xu, SP; Zhu, HL

>  <Institution>  (31) 
Nanjing University

>  <Link to Ligand in BindingDB>  (31) 
http://www.bindingdb.org/bind/chemsearch/marvin/MolStructure.jsp?monomerid=234311

>  <Link to Ligand-Target Pair in BindingDB>  (31) 
http://www.bindingdb.org/jsp/dbsearch/PrimarySearch_ki.jsp?energyterm=kJ/mole&tag=r21&monomerid=234311&enzyme=Epidermal+growth+factor+receptor+%5B645-1186%5D&column=ki&startPg=0&Increment=50&submit=Search

>  <Ligand HET ID in PDB>  (31) 


>  <PDB ID(s) for Ligand-Target Complex>  (31) 


>  <PubChem CID of Ligand>  (31) 
5274032

>  <PubChem SID of Ligand>  (31) 
340094300

>  <ChEBI ID of Ligand>  (31) 


>  <ChEMBL ID of Ligand>  (31) 


>  <DrugBank ID of Ligand>  (31) 


>  <IUPHAR_GRAC ID of Ligand>  (31) 


>  <KEGG ID of Ligand>  (31) 


>  <ZINC ID of Ligand>  (31) 


>  <Number of Protein Chains in Target (bigger than 1 implies a multichain complex)>  (31) 
1

>  <BindingDB Target Chain Sequence>  (31) 
SIATGMVGALLLLLVVALGIGLFMRRRHIVRKRTLRRLLQERELVEPLTPSGEAPNQALLRILKETEFKKIKVLGSGAFGTVYKGLWIPEGEKVKIPVAIKELREATSPKANKEILDEAYVMASVDNPHVCRLLGICLTSTVQLITQLMPFGCLLDYVREHKDNIGSQYLLNWCVQIAKGMNYLEDRRLVHRDLAARNVLVKTPQHVKITDFGLAKLLGAEEKEYHAEGGKVPIKWMALESILHRIYTHQSDVWSYGVTVWELMTFGSKPYDGIPASEISSILEKGERLPQPPICTIDVYMIMVKCWMIDADSRPKFRELIIEFSKMARDPQRYLVIQGDERMHLPSPTDSNFYRALMDEEDMDDVVDADEYLIPQQGFFSSPSTSRTPLLSSLSATSNNSTVACIDRNGLQSCPIKEDSFLQRYSSDPTGALTEDSIDDTFLPVPEYINQSVPKRPAGSVQNPVYHNQPLNPAPSRDPHYQDPHSTAVGNPEYLNTVQPTCVNSTFDSPAHWAQKGSHQISLDNPDYQQDFFPKEAKPNGI

>  <PDB ID(s) of Target Chain>  (31) 
1M14,1M17,1XKK,1Z9I,2GS2,2GS6,2ITW,2ITX,2ITY,2J5E,2J5F,2J6M,2RF9,2RGP,3BEL,3GOP,3POZ,3VJO,3W2O,3W2P,3W2Q,3W2R,3W2S,3W32,3W33,4G5J,4I23,4JQ7,4JQ8,4JR3,4JRV,4LI5,4RJ4,4RJ5,4RJ6,4RJ7,4RJ8,4TKS,4WKQ,4WRG,4ZAU,5C8K,5C8M,5C8N,5CAL,5CAN,5CAO,5CAP,5CAQ,5CAS,5CAU,5CAV,5EDP,5EDQ,5EDR,5EM5,5EM6,5EM7,5EM8,5GNK,5HCX,5HCY,5HCZ,5HIB,5HIC,5UGB,5Y25,6D8E,6JZ0,6S89,6S8A,6VH4,6VHN,6VHP,7AEI,7AEM,7B85,7OXB,7SI1,7UKV,7ZYM,7ZYN,7ZYP,8A27,8A2A,8HY7

>  <UniProt (SwissProt) Recommended Name of Target Chain>  (31) 
Epidermal growth factor receptor

>  <UniProt (SwissProt) Entry Name of Target Chain>  (31) 
EGFR_HUMAN

>  <UniProt (SwissProt) Primary ID of Target Chain>  (31) 
P00533

>  <UniProt (SwissProt) Secondary ID(s) of Target Chain>  (31) 
O00688 O00732 P06268 Q14225 Q68GS5 Q92795 Q9BZS2 Q9GZX1 Q9H2C9 Q9H3C9 Q9UMD7 Q9UMD8 Q9UMG5

>  <UniProt (SwissProt) Alternative ID(s) of Target Chain>  (31) 


>  <UniProt (TrEMBL) Submitted Name of Target Chain>  (31) 


>  <UniProt (TrEMBL) Entry Name of Target Chain>  (31) 


>  <UniProt (TrEMBL) Primary ID of Target Chain>  (31) 


>  <UniProt (TrEMBL) Secondary ID(s) of Target Chain>  (31) 


>  <UniProt (TrEMBL) Alternative ID(s) of Target Chain>  (31) 


$$$$
Untitled Document-1
     RDKit          3D

 30 31  0  0  0  0  0  0  0  0999 V2000
   -1.4146   -0.6027   -0.0668 C   0  0  0  0  0  0  0  0  0  0  0  0
   -2.8122   -0.1248   -0.1375 C   0  0  0  0  0  0  0  0  0  0  0  0
   -3.2234    1.0579    0.5116 C   0  0  0  0  0  0  0  0  0  0  0  0
   -4.5555    1.4855    0.4061 C   0  0  0  0  0  0  0  0  0  0  0  0
   -5.4872    0.7409   -0.3310 C   0  0  0  0  0  0  0  0  0  0  0  0
   -5.0865   -0.4581   -0.9350 C   0  0  0  0  0  0  0  0  0  0  0  0
   -3.7604   -0.8862   -0.8403 C   0  0  0  0  0  0  0  0  0  0  0  0
   -1.1991   -1.8255    0.1534 O   0  0  0  0  0  0  0  0  0  0  0  0
   -0.3155    0.3080   -0.2511 N   0  0  0  0  0  0  0  0  0  0  0  0
   -6.9195    1.1811   -0.4024 C   0  0  0  0  0  0  0  0  0  0  0  0
   -2.3227    1.7905    1.2849 O   0  0  0  0  0  0  0  0  0  0  0  0
    1.0675   -0.0827   -0.2212 C   0  0  0  0  0  0  0  0  0  0  0  0
    2.0120    0.7802    0.3557 C   0  0  0  0  0  0  0  0  0  0  0  0
    3.3669    0.4355    0.3766 C   0  0  0  0  0  0  0  0  0  0  0  0
    3.7928   -0.7678   -0.1941 C   0  0  0  0  0  0  0  0  0  0  0  0
    2.8625   -1.6221   -0.7943 C   0  0  0  0  0  0  0  0  0  0  0  0
    1.5067   -1.2802   -0.8155 C   0  0  0  0  0  0  0  0  0  0  0  0
    5.4932   -1.1979   -0.1707 Cl  0  0  0  0  0  0  0  0  0  0  0  0
   -4.8668    2.3930    0.9092 H   0  0  0  0  0  0  0  0  0  0  0  0
   -5.8002   -1.0609   -1.4831 H   0  0  0  0  0  0  0  0  0  0  0  0
   -3.4699   -1.8086   -1.3287 H   0  0  0  0  0  0  0  0  0  0  0  0
   -0.5216    1.3257   -0.3631 H   0  0  0  0  0  0  0  0  0  0  0  0
   -7.4804    0.7528    0.4543 H   0  0  0  0  0  0  0  0  0  0  0  0
   -7.3881    0.8392   -1.3498 H   0  0  0  0  0  0  0  0  0  0  0  0
   -6.9909    2.2891   -0.3651 H   0  0  0  0  0  0  0  0  0  0  0  0
   -2.6006    2.6378    1.7663 H   0  0  0  0  0  0  0  0  0  0  0  0
    1.6944    1.7158    0.7988 H   0  0  0  0  0  0  0  0  0  0  0  0
    4.0840    1.1050    0.8342 H   0  0  0  0  0  0  0  0  0  0  0  0
    3.1899   -2.5464   -1.2533 H   0  0  0  0  0  0  0  0  0  0  0  0
    0.8113   -1.9367   -1.3207 H   0  0  0  0  0  0  0  0  0  0  0  0
  1  2  1  0
  2  3  2  0
  3  4  1  0
  4  5  2  0
  5  6  1  0
  6  7  2  0
  2  7  1  0
  1  8  2  0
  1  9  1  0
  5 10  1  0
  3 11  1  0
 12 13  2  0
 13 14  1  0
 14 15  2  0
 15 16  1  0
 16 17  2  0
 12 17  1  0
 15 18  1  0
  9 12  1  0
  4 19  1  0
  6 20  1  0
  7 21  1  0
  9 22  1  0
 10 23  1  0
 10 24  1  0
 10 25  1  0
 11 26  1  0
 13 27  1  0
 14 28  1  0
 16 29  1  0
 17 30  1  0
M  END
>  <From>  (32) 
www.bindingDB.org

>  <BindingDB Reactant_set_id>  (32) 
408359

>  <Ligand InChI>  (32) 
InChI=1S/C14H12ClNO2/c1-9-2-7-12(13(17)8-9)14(18)16-11-5-3-10(15)4-6-11/h2-8,17H,1H3,(H,16,18)

>  <Ligand InChI Key>  (32) 
UVNMERMRDSXOPL-UHFFFAOYSA-N

>  <BindingDB MonomerID>  (32) 
234314

>  <BindingDB Ligand Name>  (32) 
N-(4-chlorophenyl)-2-hydroxy-4-methylbenzamide (16)

>  <Target Name>  (32) 
Epidermal growth factor receptor [645-1186]

>  <Target Source Organism According to Curator or DataSource>  (32) 


>  <Ki (nM)>  (32) 


>  <IC50 (nM)>  (32) 
 50000

>  <Kd (nM)>  (32) 


>  <EC50 (nM)>  (32) 


>  <kon (M-1-s-1)>  (32) 


>  <koff (s-1)>  (32) 


>  <pH>  (32) 
7.4

>  <Temp C>  (32) 
25.00

>  <Curation/DataSource>  (32) 
Curated from the literature by BindingDB

>  <Article DOI>  (32) 
10.3109/14756361003671060

>  <BindingDB Entry DOI>  (32) 
10.7270/Q2XW4HPN

>  <PMID>  (32) 
20583855

>  <PubChem AID>  (32) 
aid1802974

>  <Patent Number>  (32) 


>  <Authors>  (32) 
Zhu, ZW; Shi, L; Ruan, XM; Yang, Y; Li, HQ; Xu, SP; Zhu, HL

>  <Institution>  (32) 
Nanjing University

>  <Link to Ligand in BindingDB>  (32) 
http://www.bindingdb.org/bind/chemsearch/marvin/MolStructure.jsp?monomerid=234314

>  <Link to Ligand-Target Pair in BindingDB>  (32) 
http://www.bindingdb.org/jsp/dbsearch/PrimarySearch_ki.jsp?energyterm=kJ/mole&tag=r21&monomerid=234314&enzyme=Epidermal+growth+factor+receptor+%5B645-1186%5D&column=ki&startPg=0&Increment=50&submit=Search

>  <Ligand HET ID in PDB>  (32) 


>  <PDB ID(s) for Ligand-Target Complex>  (32) 


>  <PubChem CID of Ligand>  (32) 
5274034

>  <PubChem SID of Ligand>  (32) 
340094303

>  <ChEBI ID of Ligand>  (32) 


>  <ChEMBL ID of Ligand>  (32) 


>  <DrugBank ID of Ligand>  (32) 


>  <IUPHAR_GRAC ID of Ligand>  (32) 


>  <KEGG ID of Ligand>  (32) 


>  <ZINC ID of Ligand>  (32) 


>  <Number of Protein Chains in Target (bigger than 1 implies a multichain complex)>  (32) 
1

>  <BindingDB Target Chain Sequence>  (32) 
SIATGMVGALLLLLVVALGIGLFMRRRHIVRKRTLRRLLQERELVEPLTPSGEAPNQALLRILKETEFKKIKVLGSGAFGTVYKGLWIPEGEKVKIPVAIKELREATSPKANKEILDEAYVMASVDNPHVCRLLGICLTSTVQLITQLMPFGCLLDYVREHKDNIGSQYLLNWCVQIAKGMNYLEDRRLVHRDLAARNVLVKTPQHVKITDFGLAKLLGAEEKEYHAEGGKVPIKWMALESILHRIYTHQSDVWSYGVTVWELMTFGSKPYDGIPASEISSILEKGERLPQPPICTIDVYMIMVKCWMIDADSRPKFRELIIEFSKMARDPQRYLVIQGDERMHLPSPTDSNFYRALMDEEDMDDVVDADEYLIPQQGFFSSPSTSRTPLLSSLSATSNNSTVACIDRNGLQSCPIKEDSFLQRYSSDPTGALTEDSIDDTFLPVPEYINQSVPKRPAGSVQNPVYHNQPLNPAPSRDPHYQDPHSTAVGNPEYLNTVQPTCVNSTFDSPAHWAQKGSHQISLDNPDYQQDFFPKEAKPNGI

>  <PDB ID(s) of Target Chain>  (32) 
1M14,1M17,1XKK,1Z9I,2GS2,2GS6,2ITW,2ITX,2ITY,2J5E,2J5F,2J6M,2RF9,2RGP,3BEL,3GOP,3POZ,3VJO,3W2O,3W2P,3W2Q,3W2R,3W2S,3W32,3W33,4G5J,4I23,4JQ7,4JQ8,4JR3,4JRV,4LI5,4RJ4,4RJ5,4RJ6,4RJ7,4RJ8,4TKS,4WKQ,4WRG,4ZAU,5C8K,5C8M,5C8N,5CAL,5CAN,5CAO,5CAP,5CAQ,5CAS,5CAU,5CAV,5EDP,5EDQ,5EDR,5EM5,5EM6,5EM7,5EM8,5GNK,5HCX,5HCY,5HCZ,5HIB,5HIC,5UGB,5Y25,6D8E,6JZ0,6S89,6S8A,6VH4,6VHN,6VHP,7AEI,7AEM,7B85,7OXB,7SI1,7UKV,7ZYM,7ZYN,7ZYP,8A27,8A2A,8HY7

>  <UniProt (SwissProt) Recommended Name of Target Chain>  (32) 
Epidermal growth factor receptor

>  <UniProt (SwissProt) Entry Name of Target Chain>  (32) 
EGFR_HUMAN

>  <UniProt (SwissProt) Primary ID of Target Chain>  (32) 
P00533

>  <UniProt (SwissProt) Secondary ID(s) of Target Chain>  (32) 
O00688 O00732 P06268 Q14225 Q68GS5 Q92795 Q9BZS2 Q9GZX1 Q9H2C9 Q9H3C9 Q9UMD7 Q9UMD8 Q9UMG5

>  <UniProt (SwissProt) Alternative ID(s) of Target Chain>  (32) 


>  <UniProt (TrEMBL) Submitted Name of Target Chain>  (32) 


>  <UniProt (TrEMBL) Entry Name of Target Chain>  (32) 


>  <UniProt (TrEMBL) Primary ID of Target Chain>  (32) 


>  <UniProt (TrEMBL) Secondary ID(s) of Target Chain>  (32) 


>  <UniProt (TrEMBL) Alternative ID(s) of Target Chain>  (32) 


$$$$
