Untitled Document-1
 OpenBabel07052409033D

 31 32  0  0  0  0  0  0  0  0999 V2000
   -1.4020   -0.4365   -0.3503 C   0  0  0  0  0  0  0  0  0  0  0  0
   -2.7876   -0.0264   -0.2039 C   0  0  0  0  0  0  0  0  0  0  0  0
   -3.2552    1.0810    0.4462 C   0  0  0  0  0  0  0  0  0  0  0  0
   -4.6036    1.4079    0.5440 C   0  0  0  0  0  0  0  0  0  0  0  0
   -5.5205    0.5761   -0.0430 C   0  0  0  0  0  0  0  0  0  0  0  0
   -5.1132   -0.5534   -0.7114 C   0  0  0  0  0  0  0  0  0  0  0  0
   -3.7697   -0.8395   -0.7843 C   0  0  0  0  0  0  0  0  0  0  0  0
   -1.1726   -1.5194   -1.0038 O   0  0  0  0  0  0  0  0  0  0  0  0
   -0.2642    0.2149    0.1421 N   0  0  0  0  0  0  0  0  0  0  0  0
    1.0970   -0.2002    0.0001 C   0  0  0  0  0  0  0  0  0  0  0  0
    2.0587    0.7947    0.2060 C   0  0  0  0  0  0  0  0  0  0  0  0
    3.3916    0.4966    0.1111 C   0  0  0  0  0  0  0  0  0  0  0  0
    3.8268   -0.7737   -0.1859 C   0  0  0  0  0  0  0  0  0  0  0  0
    2.8740   -1.7497   -0.3874 C   0  0  0  0  0  0  0  0  0  0  0  0
    1.4997   -1.4732   -0.2962 C   0  0  0  0  0  0  0  0  0  0  0  0
    5.1850   -1.1044   -0.2891 O   0  0  0  0  0  0  0  0  0  0  0  0
    6.1129   -0.0602   -0.0716 C   0  0  0  0  0  0  0  0  0  0  0  0
   -6.5635   -1.7928   -1.5925 I   0  0  0  0  0  0  0  0  0  0  0  0
   -2.3662    1.9305    1.0419 O   0  0  0  0  0  0  0  0  0  0  0  0
   -4.9062    2.2568    1.0468 H   0  0  0  0  0  0  0  0  0  0  0  0
   -6.5261    0.7998    0.0174 H   0  0  0  0  0  0  0  0  0  0  0  0
   -3.4725   -1.6897   -1.2882 H   0  0  0  0  0  0  0  0  0  0  0  0
   -0.4182    1.0498    0.6405 H   0  0  0  0  0  0  0  0  0  0  0  0
    1.7622    1.7574    0.4304 H   0  0  0  0  0  0  0  0  0  0  0  0
    4.0867    1.2434    0.2662 H   0  0  0  0  0  0  0  0  0  0  0  0
    3.1788   -2.7099   -0.6114 H   0  0  0  0  0  0  0  0  0  0  0  0
    0.8041   -2.2198   -0.4505 H   0  0  0  0  0  0  0  0  0  0  0  0
    7.1078   -0.4392   -0.1782 H   0  0  0  0  0  0  0  0  0  0  0  0
    5.9843    0.3313    0.9159 H   0  0  0  0  0  0  0  0  0  0  0  0
    5.9489    0.7176   -0.7878 H   0  0  0  0  0  0  0  0  0  0  0  0
   -1.4475    1.7507    1.0019 H   0  0  0  0  0  0  0  0  0  0  0  0
  1  2  1  0  0  0  0
  1  8  2  0  0  0  0
  1  9  1  0  0  0  0
  2  3  2  0  0  0  0
  2  7  1  0  0  0  0
  3  4  1  0  0  0  0
  3 19  1  0  0  0  0
  4  5  2  0  0  0  0
  4 20  1  0  0  0  0
  5  6  1  0  0  0  0
  5 21  1  0  0  0  0
  6  7  2  0  0  0  0
  6 18  1  0  0  0  0
  7 22  1  0  0  0  0
  9 10  1  0  0  0  0
  9 23  1  0  0  0  0
 10 11  2  0  0  0  0
 10 15  1  0  0  0  0
 11 12  1  0  0  0  0
 11 24  1  0  0  0  0
 12 13  2  0  0  0  0
 12 25  1  0  0  0  0
 13 14  1  0  0  0  0
 13 16  1  0  0  0  0
 14 15  2  0  0  0  0
 14 26  1  0  0  0  0
 15 27  1  0  0  0  0
 16 17  1  0  0  0  0
 17 28  1  0  0  0  0
 17 29  1  0  0  0  0
 17 30  1  0  0  0  0
 19 31  1  0  0  0  0
M  END
>  <From>
www.bindingDB.org

>  <BindingDB Reactant_set_id>
408371

>  <Ligand InChI>
InChI=1S/C14H12INO3/c1-19-11-5-3-10(4-6-11)16-14(18)12-8-9(15)2-7-13(12)17/h2-8,17H,1H3,(H,16,18)

>  <Ligand InChI Key>
WJUFTZFAQYHROG-UHFFFAOYSA-N

>  <BindingDB MonomerID>
234326

>  <BindingDB Ligand Name>
2-Hydroxy-5-iodo-N-(4-methoxyphenyl)benzamide (28)

>  <Target Name>
Epidermal growth factor receptor [645-1186]

>  <Target Source Organism According to Curator or DataSource>


>  <Ki (nM)>


>  <IC50 (nM)>
630

>  <Kd (nM)>


>  <EC50 (nM)>


>  <kon (M-1-s-1)>


>  <koff (s-1)>


>  <pH>
7.4

>  <Temp C>
25.00

>  <Curation/DataSource>
Curated from the literature by BindingDB

>  <Article DOI>
10.3109/14756361003671060

>  <BindingDB Entry DOI>
10.7270/Q2XW4HPN

>  <PMID>
20583855

>  <PubChem AID>
aid1802974

>  <Patent Number>


>  <Authors>
Zhu, ZW; Shi, L; Ruan, XM; Yang, Y; Li, HQ; Xu, SP; Zhu, HL

>  <Institution>
Nanjing University

>  <Link to Ligand in BindingDB>
http://www.bindingdb.org/bind/chemsearch/marvin/MolStructure.jsp?monomerid=234326

>  <Link to Ligand-Target Pair in BindingDB>
http://www.bindingdb.org/jsp/dbsearch/PrimarySearch_ki.jsp?energyterm=kJ/mole&tag=r21&monomerid=234326&enzyme=Epidermal+growth+factor+receptor+%5B645-1186%5D&column=ki&startPg=0&Increment=50&submit=Search

>  <Ligand HET ID in PDB>


>  <PDB ID(s) for Ligand-Target Complex>


>  <PubChem CID of Ligand>
27228916

>  <PubChem SID of Ligand>
340094315

>  <ChEBI ID of Ligand>


>  <ChEMBL ID of Ligand>


>  <DrugBank ID of Ligand>


>  <IUPHAR_GRAC ID of Ligand>


>  <KEGG ID of Ligand>


>  <ZINC ID of Ligand>


>  <Number of Protein Chains in Target (bigger than 1 implies a multichain complex)>
1

>  <BindingDB Target Chain Sequence>
SIATGMVGALLLLLVVALGIGLFMRRRHIVRKRTLRRLLQERELVEPLTPSGEAPNQALLRILKETEFKKIKVLGSGAFGTVYKGLWIPEGEKVKIPVAIKELREATSPKANKEILDEAYVMASVDNPHVCRLLGICLTSTVQLITQLMPFGCLLDYVREHKDNIGSQYLLNWCVQIAKGMNYLEDRRLVHRDLAARNVLVKTPQHVKITDFGLAKLLGAEEKEYHAEGGKVPIKWMALESILHRIYTHQSDVWSYGVTVWELMTFGSKPYDGIPASEISSILEKGERLPQPPICTIDVYMIMVKCWMIDADSRPKFRELIIEFSKMARDPQRYLVIQGDERMHLPSPTDSNFYRALMDEEDMDDVVDADEYLIPQQGFFSSPSTSRTPLLSSLSATSNNSTVACIDRNGLQSCPIKEDSFLQRYSSDPTGALTEDSIDDTFLPVPEYINQSVPKRPAGSVQNPVYHNQPLNPAPSRDPHYQDPHSTAVGNPEYLNTVQPTCVNSTFDSPAHWAQKGSHQISLDNPDYQQDFFPKEAKPNGI

>  <PDB ID(s) of Target Chain>
1M14,1M17,1XKK,1Z9I,2GS2,2GS6,2ITW,2ITX,2ITY,2J5E,2J5F,2J6M,2RF9,2RGP,3BEL,3GOP,3POZ,3VJO,3W2O,3W2P,3W2Q,3W2R,3W2S,3W32,3W33,4G5J,4I23,4JQ7,4JQ8,4JR3,4JRV,4LI5,4RJ4,4RJ5,4RJ6,4RJ7,4RJ8,4TKS,4WKQ,4WRG,4ZAU,5C8K,5C8M,5C8N,5CAL,5CAN,5CAO,5CAP,5CAQ,5CAS,5CAU,5CAV,5EDP,5EDQ,5EDR,5EM5,5EM6,5EM7,5EM8,5GNK,5HCX,5HCY,5HCZ,5HIB,5HIC,5UGB,5Y25,6D8E,6JZ0,6S89,6S8A,6VH4,6VHN,6VHP,7AEI,7AEM,7B85,7OXB,7SI1,7UKV,7ZYM,7ZYN,7ZYP,8A27,8A2A,8HY7

>  <UniProt (SwissProt) Recommended Name of Target Chain>
Epidermal growth factor receptor

>  <UniProt (SwissProt) Entry Name of Target Chain>
EGFR_HUMAN

>  <UniProt (SwissProt) Primary ID of Target Chain>
P00533

>  <UniProt (SwissProt) Secondary ID(s) of Target Chain>
O00688 O00732 P06268 Q14225 Q68GS5 Q92795 Q9BZS2 Q9GZX1 Q9H2C9 Q9H3C9 Q9UMD7 Q9UMD8 Q9UMG5

>  <UniProt (SwissProt) Alternative ID(s) of Target Chain>


>  <UniProt (TrEMBL) Submitted Name of Target Chain>


>  <UniProt (TrEMBL) Entry Name of Target Chain>


>  <UniProt (TrEMBL) Primary ID of Target Chain>


>  <UniProt (TrEMBL) Secondary ID(s) of Target Chain>


>  <UniProt (TrEMBL) Alternative ID(s) of Target Chain>


$$$$
Untitled Document-1
 OpenBabel07052409033D

 27 28  0  0  0  0  0  0  0  0999 V2000
   -1.3794   -0.4500   -0.5250 C   0  0  0  0  0  0  0  0  0  0  0  0
   -2.8011   -0.1079   -0.2811 C   0  0  0  0  0  0  0  0  0  0  0  0
   -3.8204   -1.0632   -0.4870 C   0  0  0  0  0  0  0  0  0  0  0  0
   -5.1610   -0.7147   -0.2652 C   0  0  0  0  0  0  0  0  0  0  0  0
   -5.4948    0.5725    0.1587 C   0  0  0  0  0  0  0  0  0  0  0  0
   -4.4932    1.5240    0.3594 C   0  0  0  0  0  0  0  0  0  0  0  0
   -3.1541    1.1883    0.1387 C   0  0  0  0  0  0  0  0  0  0  0  0
   -1.0860   -1.2245   -1.4764 O   0  0  0  0  0  0  0  0  0  0  0  0
   -0.3369    0.1100    0.2940 N   0  0  0  0  0  0  0  0  0  0  0  0
   -5.0023    3.4738    0.9828 I   0  0  0  0  0  0  0  0  0  0  0  0
   -3.5022   -2.3585   -0.8959 O   0  0  0  0  0  0  0  0  0  0  0  0
    1.0567   -0.1958    0.1194 C   0  0  0  0  0  0  0  0  0  0  0  0
    2.0225    0.8283    0.1922 C   0  0  0  0  0  0  0  0  0  0  0  0
    3.3812    0.5207    0.0513 C   0  0  0  0  0  0  0  0  0  0  0  0
    3.7873   -0.8006   -0.1487 C   0  0  0  0  0  0  0  0  0  0  0  0
    2.8378   -1.8223   -0.2046 C   0  0  0  0  0  0  0  0  0  0  0  0
    1.4794   -1.5247   -0.0663 C   0  0  0  0  0  0  0  0  0  0  0  0
    1.5193    2.6612    0.4391 Br  0  0  0  0  0  0  0  0  0  0  0  0
   -5.9047   -1.4141   -0.4163 H   0  0  0  0  0  0  0  0  0  0  0  0
   -6.4827    0.8210    0.3239 H   0  0  0  0  0  0  0  0  0  0  0  0
   -2.4182    1.8969    0.2848 H   0  0  0  0  0  0  0  0  0  0  0  0
   -0.5914    0.7349    1.0109 H   0  0  0  0  0  0  0  0  0  0  0  0
   -2.6083   -2.5963   -1.0454 H   0  0  0  0  0  0  0  0  0  0  0  0
    4.0856    1.2736    0.0954 H   0  0  0  0  0  0  0  0  0  0  0  0
    4.7897   -1.0216   -0.2552 H   0  0  0  0  0  0  0  0  0  0  0  0
    3.1394   -2.7987   -0.3483 H   0  0  0  0  0  0  0  0  0  0  0  0
    0.7819   -2.2846   -0.1006 H   0  0  0  0  0  0  0  0  0  0  0  0
  1  2  1  0  0  0  0
  1  8  2  0  0  0  0
  1  9  1  0  0  0  0
  2  3  2  0  0  0  0
  2  7  1  0  0  0  0
  3  4  1  0  0  0  0
  3 11  1  0  0  0  0
  4  5  2  0  0  0  0
  4 19  1  0  0  0  0
  5  6  1  0  0  0  0
  5 20  1  0  0  0  0
  6  7  2  0  0  0  0
  6 10  1  0  0  0  0
  7 21  1  0  0  0  0
  9 12  1  0  0  0  0
  9 22  1  0  0  0  0
 11 23  1  0  0  0  0
 12 13  2  0  0  0  0
 12 17  1  0  0  0  0
 13 14  1  0  0  0  0
 13 18  1  0  0  0  0
 14 15  2  0  0  0  0
 14 24  1  0  0  0  0
 15 16  1  0  0  0  0
 15 25  1  0  0  0  0
 16 17  2  0  0  0  0
 16 26  1  0  0  0  0
 17 27  1  0  0  0  0
M  END
>  <From>
www.bindingDB.org

>  <BindingDB Reactant_set_id>
408365

>  <Ligand InChI>
InChI=1S/C13H9BrINO2/c14-10-3-1-2-4-11(10)16-13(18)9-7-8(15)5-6-12(9)17/h1-7,17H,(H,16,18)

>  <Ligand InChI Key>
UJXWHCDXPOPQCH-UHFFFAOYSA-N

>  <BindingDB MonomerID>
234320

>  <BindingDB Ligand Name>
N-(2-bromophenyl)-2-hydroxy-5-iodobenzamide (22)

>  <Target Name>
Epidermal growth factor receptor [645-1186]

>  <Target Source Organism According to Curator or DataSource>


>  <Ki (nM)>


>  <IC50 (nM)>
920

>  <Kd (nM)>


>  <EC50 (nM)>


>  <kon (M-1-s-1)>


>  <koff (s-1)>


>  <pH>
7.4

>  <Temp C>
25.00

>  <Curation/DataSource>
Curated from the literature by BindingDB

>  <Article DOI>
10.3109/14756361003671060

>  <BindingDB Entry DOI>
10.7270/Q2XW4HPN

>  <PMID>
20583855

>  <PubChem AID>
aid1802974

>  <Patent Number>


>  <Authors>
Zhu, ZW; Shi, L; Ruan, XM; Yang, Y; Li, HQ; Xu, SP; Zhu, HL

>  <Institution>
Nanjing University

>  <Link to Ligand in BindingDB>
http://www.bindingdb.org/bind/chemsearch/marvin/MolStructure.jsp?monomerid=234320

>  <Link to Ligand-Target Pair in BindingDB>
http://www.bindingdb.org/jsp/dbsearch/PrimarySearch_ki.jsp?energyterm=kJ/mole&tag=r21&monomerid=234320&enzyme=Epidermal+growth+factor+receptor+%5B645-1186%5D&column=ki&startPg=0&Increment=50&submit=Search

>  <Ligand HET ID in PDB>


>  <PDB ID(s) for Ligand-Target Complex>


>  <PubChem CID of Ligand>
51351600

>  <PubChem SID of Ligand>
340094309

>  <ChEBI ID of Ligand>


>  <ChEMBL ID of Ligand>


>  <DrugBank ID of Ligand>


>  <IUPHAR_GRAC ID of Ligand>


>  <KEGG ID of Ligand>


>  <ZINC ID of Ligand>


>  <Number of Protein Chains in Target (bigger than 1 implies a multichain complex)>
1

>  <BindingDB Target Chain Sequence>
SIATGMVGALLLLLVVALGIGLFMRRRHIVRKRTLRRLLQERELVEPLTPSGEAPNQALLRILKETEFKKIKVLGSGAFGTVYKGLWIPEGEKVKIPVAIKELREATSPKANKEILDEAYVMASVDNPHVCRLLGICLTSTVQLITQLMPFGCLLDYVREHKDNIGSQYLLNWCVQIAKGMNYLEDRRLVHRDLAARNVLVKTPQHVKITDFGLAKLLGAEEKEYHAEGGKVPIKWMALESILHRIYTHQSDVWSYGVTVWELMTFGSKPYDGIPASEISSILEKGERLPQPPICTIDVYMIMVKCWMIDADSRPKFRELIIEFSKMARDPQRYLVIQGDERMHLPSPTDSNFYRALMDEEDMDDVVDADEYLIPQQGFFSSPSTSRTPLLSSLSATSNNSTVACIDRNGLQSCPIKEDSFLQRYSSDPTGALTEDSIDDTFLPVPEYINQSVPKRPAGSVQNPVYHNQPLNPAPSRDPHYQDPHSTAVGNPEYLNTVQPTCVNSTFDSPAHWAQKGSHQISLDNPDYQQDFFPKEAKPNGI

>  <PDB ID(s) of Target Chain>
1M14,1M17,1XKK,1Z9I,2GS2,2GS6,2ITW,2ITX,2ITY,2J5E,2J5F,2J6M,2RF9,2RGP,3BEL,3GOP,3POZ,3VJO,3W2O,3W2P,3W2Q,3W2R,3W2S,3W32,3W33,4G5J,4I23,4JQ7,4JQ8,4JR3,4JRV,4LI5,4RJ4,4RJ5,4RJ6,4RJ7,4RJ8,4TKS,4WKQ,4WRG,4ZAU,5C8K,5C8M,5C8N,5CAL,5CAN,5CAO,5CAP,5CAQ,5CAS,5CAU,5CAV,5EDP,5EDQ,5EDR,5EM5,5EM6,5EM7,5EM8,5GNK,5HCX,5HCY,5HCZ,5HIB,5HIC,5UGB,5Y25,6D8E,6JZ0,6S89,6S8A,6VH4,6VHN,6VHP,7AEI,7AEM,7B85,7OXB,7SI1,7UKV,7ZYM,7ZYN,7ZYP,8A27,8A2A,8HY7

>  <UniProt (SwissProt) Recommended Name of Target Chain>
Epidermal growth factor receptor

>  <UniProt (SwissProt) Entry Name of Target Chain>
EGFR_HUMAN

>  <UniProt (SwissProt) Primary ID of Target Chain>
P00533

>  <UniProt (SwissProt) Secondary ID(s) of Target Chain>
O00688 O00732 P06268 Q14225 Q68GS5 Q92795 Q9BZS2 Q9GZX1 Q9H2C9 Q9H3C9 Q9UMD7 Q9UMD8 Q9UMG5

>  <UniProt (SwissProt) Alternative ID(s) of Target Chain>


>  <UniProt (TrEMBL) Submitted Name of Target Chain>


>  <UniProt (TrEMBL) Entry Name of Target Chain>


>  <UniProt (TrEMBL) Primary ID of Target Chain>


>  <UniProt (TrEMBL) Secondary ID(s) of Target Chain>


>  <UniProt (TrEMBL) Alternative ID(s) of Target Chain>


$$$$
Untitled Document-1
 OpenBabel07052409033D

 30 31  0  0  0  0  0  0  0  0999 V2000
   -1.4119   -0.5696   -0.1780 C   0  0  0  0  0  0  0  0  0  0  0  0
   -2.8106   -0.0921   -0.2251 C   0  0  0  0  0  0  0  0  0  0  0  0
   -3.2260    1.0534    0.4870 C   0  0  0  0  0  0  0  0  0  0  0  0
   -4.5596    1.4809    0.4023 C   0  0  0  0  0  0  0  0  0  0  0  0
   -5.4828    0.7663   -0.3638 C   0  0  0  0  0  0  0  0  0  0  0  0
   -5.0832   -0.3837   -1.0476 C   0  0  0  0  0  0  0  0  0  0  0  0
   -3.7550   -0.8142   -0.9751 C   0  0  0  0  0  0  0  0  0  0  0  0
   -1.1939   -1.8022   -0.0252 O   0  0  0  0  0  0  0  0  0  0  0  0
   -0.3148    0.3523   -0.3102 N   0  0  0  0  0  0  0  0  0  0  0  0
    1.0690   -0.0366   -0.2993 C   0  0  0  0  0  0  0  0  0  0  0  0
    2.0109    0.7969    0.3213 C   0  0  0  0  0  0  0  0  0  0  0  0
    3.8005   -0.7248   -0.2951 C   0  0  0  0  0  0  0  0  0  0  0  0
    1.5113   -1.1973   -0.9585 C   0  0  0  0  0  0  0  0  0  0  0  0
    3.3665    0.4555    0.3259 C   0  0  0  0  0  0  0  0  0  0  0  0
    2.8674   -1.5382   -0.9549 C   0  0  0  0  0  0  0  0  0  0  0  0
    5.2598   -1.0701   -0.3264 C   0  0  0  0  0  0  0  0  0  0  0  0
   -6.4827   -1.4685   -2.1936 I   0  0  0  0  0  0  0  0  0  0  0  0
   -2.3288    1.7478    1.2984 O   0  0  0  0  0  0  0  0  0  0  0  0
   -4.8599    2.3283    0.9090 H   0  0  0  0  0  0  0  0  0  0  0  0
   -6.4614    1.0884   -0.4247 H   0  0  0  0  0  0  0  0  0  0  0  0
   -3.4657   -1.6688   -1.4761 H   0  0  0  0  0  0  0  0  0  0  0  0
   -0.5250    1.3084   -0.4146 H   0  0  0  0  0  0  0  0  0  0  0  0
    1.7009    1.6689    0.7780 H   0  0  0  0  0  0  0  0  0  0  0  0
    0.8316   -1.8006   -1.4474 H   0  0  0  0  0  0  0  0  0  0  0  0
    4.0507    1.0745    0.7881 H   0  0  0  0  0  0  0  0  0  0  0  0
    3.1833   -2.3925   -1.4401 H   0  0  0  0  0  0  0  0  0  0  0  0
    5.8112   -0.3395    0.2278 H   0  0  0  0  0  0  0  0  0  0  0  0
    5.6019   -1.0817   -1.3402 H   0  0  0  0  0  0  0  0  0  0  0  0
    5.4073   -2.0355    0.1108 H   0  0  0  0  0  0  0  0  0  0  0  0
   -1.4371    1.4665    1.3585 H   0  0  0  0  0  0  0  0  0  0  0  0
  1  2  1  0  0  0  0
  1  8  2  0  0  0  0
  1  9  1  0  0  0  0
  2  3  2  0  0  0  0
  2  7  1  0  0  0  0
  3  4  1  0  0  0  0
  3 18  1  0  0  0  0
  4  5  2  0  0  0  0
  4 19  1  0  0  0  0
  5  6  1  0  0  0  0
  5 20  1  0  0  0  0
  6  7  2  0  0  0  0
  6 17  1  0  0  0  0
  7 21  1  0  0  0  0
  9 10  1  0  0  0  0
  9 22  1  0  0  0  0
 10 11  2  0  0  0  0
 10 13  1  0  0  0  0
 11 14  1  0  0  0  0
 11 23  1  0  0  0  0
 12 14  2  0  0  0  0
 12 15  1  0  0  0  0
 12 16  1  0  0  0  0
 13 15  2  0  0  0  0
 13 24  1  0  0  0  0
 14 25  1  0  0  0  0
 15 26  1  0  0  0  0
 16 27  1  0  0  0  0
 16 28  1  0  0  0  0
 16 29  1  0  0  0  0
 18 30  1  0  0  0  0
M  END
>  <From>
www.bindingDB.org

>  <BindingDB Reactant_set_id>
408370

>  <Ligand InChI>
InChI=1S/C14H12INO2/c1-9-2-5-11(6-3-9)16-14(18)12-8-10(15)4-7-13(12)17/h2-8,17H,1H3,(H,16,18)

>  <Ligand InChI Key>
FJIYUFGXIDULBA-UHFFFAOYSA-N

>  <BindingDB MonomerID>
234325

>  <BindingDB Ligand Name>
2-Hydroxy-5-iodo-N-p-tolylbenzamide (27)

>  <Target Name>
Epidermal growth factor receptor [645-1186]

>  <Target Source Organism According to Curator or DataSource>


>  <Ki (nM)>


>  <IC50 (nM)>
2680

>  <Kd (nM)>


>  <EC50 (nM)>


>  <kon (M-1-s-1)>


>  <koff (s-1)>


>  <pH>
7.4

>  <Temp C>
25.00

>  <Curation/DataSource>
Curated from the literature by BindingDB

>  <Article DOI>
10.3109/14756361003671060

>  <BindingDB Entry DOI>
10.7270/Q2XW4HPN

>  <PMID>
20583855

>  <PubChem AID>
aid1802974

>  <Patent Number>


>  <Authors>
Zhu, ZW; Shi, L; Ruan, XM; Yang, Y; Li, HQ; Xu, SP; Zhu, HL

>  <Institution>
Nanjing University

>  <Link to Ligand in BindingDB>
http://www.bindingdb.org/bind/chemsearch/marvin/MolStructure.jsp?monomerid=234325

>  <Link to Ligand-Target Pair in BindingDB>
http://www.bindingdb.org/jsp/dbsearch/PrimarySearch_ki.jsp?energyterm=kJ/mole&tag=r21&monomerid=234325&enzyme=Epidermal+growth+factor+receptor+%5B645-1186%5D&column=ki&startPg=0&Increment=50&submit=Search

>  <Ligand HET ID in PDB>


>  <PDB ID(s) for Ligand-Target Complex>


>  <PubChem CID of Ligand>
53259946

>  <PubChem SID of Ligand>
340094314

>  <ChEBI ID of Ligand>


>  <ChEMBL ID of Ligand>


>  <DrugBank ID of Ligand>


>  <IUPHAR_GRAC ID of Ligand>


>  <KEGG ID of Ligand>


>  <ZINC ID of Ligand>


>  <Number of Protein Chains in Target (bigger than 1 implies a multichain complex)>
1

>  <BindingDB Target Chain Sequence>
SIATGMVGALLLLLVVALGIGLFMRRRHIVRKRTLRRLLQERELVEPLTPSGEAPNQALLRILKETEFKKIKVLGSGAFGTVYKGLWIPEGEKVKIPVAIKELREATSPKANKEILDEAYVMASVDNPHVCRLLGICLTSTVQLITQLMPFGCLLDYVREHKDNIGSQYLLNWCVQIAKGMNYLEDRRLVHRDLAARNVLVKTPQHVKITDFGLAKLLGAEEKEYHAEGGKVPIKWMALESILHRIYTHQSDVWSYGVTVWELMTFGSKPYDGIPASEISSILEKGERLPQPPICTIDVYMIMVKCWMIDADSRPKFRELIIEFSKMARDPQRYLVIQGDERMHLPSPTDSNFYRALMDEEDMDDVVDADEYLIPQQGFFSSPSTSRTPLLSSLSATSNNSTVACIDRNGLQSCPIKEDSFLQRYSSDPTGALTEDSIDDTFLPVPEYINQSVPKRPAGSVQNPVYHNQPLNPAPSRDPHYQDPHSTAVGNPEYLNTVQPTCVNSTFDSPAHWAQKGSHQISLDNPDYQQDFFPKEAKPNGI

>  <PDB ID(s) of Target Chain>
1M14,1M17,1XKK,1Z9I,2GS2,2GS6,2ITW,2ITX,2ITY,2J5E,2J5F,2J6M,2RF9,2RGP,3BEL,3GOP,3POZ,3VJO,3W2O,3W2P,3W2Q,3W2R,3W2S,3W32,3W33,4G5J,4I23,4JQ7,4JQ8,4JR3,4JRV,4LI5,4RJ4,4RJ5,4RJ6,4RJ7,4RJ8,4TKS,4WKQ,4WRG,4ZAU,5C8K,5C8M,5C8N,5CAL,5CAN,5CAO,5CAP,5CAQ,5CAS,5CAU,5CAV,5EDP,5EDQ,5EDR,5EM5,5EM6,5EM7,5EM8,5GNK,5HCX,5HCY,5HCZ,5HIB,5HIC,5UGB,5Y25,6D8E,6JZ0,6S89,6S8A,6VH4,6VHN,6VHP,7AEI,7AEM,7B85,7OXB,7SI1,7UKV,7ZYM,7ZYN,7ZYP,8A27,8A2A,8HY7

>  <UniProt (SwissProt) Recommended Name of Target Chain>
Epidermal growth factor receptor

>  <UniProt (SwissProt) Entry Name of Target Chain>
EGFR_HUMAN

>  <UniProt (SwissProt) Primary ID of Target Chain>
P00533

>  <UniProt (SwissProt) Secondary ID(s) of Target Chain>
O00688 O00732 P06268 Q14225 Q68GS5 Q92795 Q9BZS2 Q9GZX1 Q9H2C9 Q9H3C9 Q9UMD7 Q9UMD8 Q9UMG5

>  <UniProt (SwissProt) Alternative ID(s) of Target Chain>


>  <UniProt (TrEMBL) Submitted Name of Target Chain>


>  <UniProt (TrEMBL) Entry Name of Target Chain>


>  <UniProt (TrEMBL) Primary ID of Target Chain>


>  <UniProt (TrEMBL) Secondary ID(s) of Target Chain>


>  <UniProt (TrEMBL) Alternative ID(s) of Target Chain>


$$$$
Untitled Document-1
 OpenBabel07052409033D

 27 28  0  0  0  0  0  0  0  0999 V2000
   -1.3754   -0.3469   -0.5104 C   0  0  0  0  0  0  0  0  0  0  0  0
   -2.8101   -0.0450   -0.2903 C   0  0  0  0  0  0  0  0  0  0  0  0
   -3.2041    1.0315    0.5342 C   0  0  0  0  0  0  0  0  0  0  0  0
   -4.5665    1.3103    0.7176 C   0  0  0  0  0  0  0  0  0  0  0  0
   -5.5376    0.5290    0.0892 C   0  0  0  0  0  0  0  0  0  0  0  0
   -5.1560   -0.5338   -0.7316 C   0  0  0  0  0  0  0  0  0  0  0  0
   -3.8008   -0.8188   -0.9235 C   0  0  0  0  0  0  0  0  0  0  0  0
   -0.5505    0.6041   -0.5878 O   0  0  0  0  0  0  0  0  0  0  0  0
   -0.9234   -1.7051   -0.6596 N   0  0  0  0  0  0  0  0  0  0  0  0
   -6.6255   -1.7015   -1.6940 I   0  0  0  0  0  0  0  0  0  0  0  0
   -2.2462    1.8126    1.1814 O   0  0  0  0  0  0  0  0  0  0  0  0
    0.4564   -2.0655   -0.8434 C   0  0  0  0  0  0  0  0  0  0  0  0
    0.8107   -3.0637   -1.7734 C   0  0  0  0  0  0  0  0  0  0  0  0
    2.1527   -3.4323   -1.9286 C   0  0  0  0  0  0  0  0  0  0  0  0
    3.1439   -2.8241   -1.1552 C   0  0  0  0  0  0  0  0  0  0  0  0
    2.7987   -1.8477   -0.2192 C   0  0  0  0  0  0  0  0  0  0  0  0
    1.4621   -1.4726   -0.0583 C   0  0  0  0  0  0  0  0  0  0  0  0
   -0.4024   -3.8418   -2.7820 Cl  0  0  0  0  0  0  0  0  0  0  0  0
   -4.8525    2.0975    1.3205 H   0  0  0  0  0  0  0  0  0  0  0  0
   -6.5383    0.7372    0.2315 H   0  0  0  0  0  0  0  0  0  0  0  0
   -3.5245   -1.6032   -1.5346 H   0  0  0  0  0  0  0  0  0  0  0  0
   -1.5942   -2.4253   -0.6345 H   0  0  0  0  0  0  0  0  0  0  0  0
   -1.3348    1.6305    1.0622 H   0  0  0  0  0  0  0  0  0  0  0  0
    2.4104   -4.1564   -2.6173 H   0  0  0  0  0  0  0  0  0  0  0  0
    4.1319   -3.0966   -1.2757 H   0  0  0  0  0  0  0  0  0  0  0  0
    3.5316   -1.4022    0.3548 H   0  0  0  0  0  0  0  0  0  0  0  0
    1.2112   -0.7562    0.6408 H   0  0  0  0  0  0  0  0  0  0  0  0
  1  2  1  0  0  0  0
  1  8  2  0  0  0  0
  1  9  1  0  0  0  0
  2  3  2  0  0  0  0
  2  7  1  0  0  0  0
  3  4  1  0  0  0  0
  3 11  1  0  0  0  0
  4  5  2  0  0  0  0
  4 19  1  0  0  0  0
  5  6  1  0  0  0  0
  5 20  1  0  0  0  0
  6  7  2  0  0  0  0
  6 10  1  0  0  0  0
  7 21  1  0  0  0  0
  9 12  1  0  0  0  0
  9 22  1  0  0  0  0
 11 23  1  0  0  0  0
 12 13  2  0  0  0  0
 12 17  1  0  0  0  0
 13 14  1  0  0  0  0
 13 18  1  0  0  0  0
 14 15  2  0  0  0  0
 14 24  1  0  0  0  0
 15 16  1  0  0  0  0
 15 25  1  0  0  0  0
 16 17  2  0  0  0  0
 16 26  1  0  0  0  0
 17 27  1  0  0  0  0
M  END
>  <From>
www.bindingDB.org

>  <BindingDB Reactant_set_id>
408364

>  <Ligand InChI>
InChI=1S/C13H9ClINO2/c14-10-3-1-2-4-11(10)16-13(18)9-7-8(15)5-6-12(9)17/h1-7,17H,(H,16,18)

>  <Ligand InChI Key>
RPTBKEZKPOPWDU-UHFFFAOYSA-N

>  <BindingDB MonomerID>
234319

>  <BindingDB Ligand Name>
N-(2-chlorophenyl)-2-hydroxy-5-iodobenzamide (21)

>  <Target Name>
Epidermal growth factor receptor [645-1186]

>  <Target Source Organism According to Curator or DataSource>


>  <Ki (nM)>


>  <IC50 (nM)>
4370

>  <Kd (nM)>


>  <EC50 (nM)>


>  <kon (M-1-s-1)>


>  <koff (s-1)>


>  <pH>
7.4

>  <Temp C>
25.00

>  <Curation/DataSource>
Curated from the literature by BindingDB

>  <Article DOI>
10.3109/14756361003671060

>  <BindingDB Entry DOI>
10.7270/Q2XW4HPN

>  <PMID>
20583855

>  <PubChem AID>
aid1802974

>  <Patent Number>


>  <Authors>
Zhu, ZW; Shi, L; Ruan, XM; Yang, Y; Li, HQ; Xu, SP; Zhu, HL

>  <Institution>
Nanjing University

>  <Link to Ligand in BindingDB>
http://www.bindingdb.org/bind/chemsearch/marvin/MolStructure.jsp?monomerid=234319

>  <Link to Ligand-Target Pair in BindingDB>
http://www.bindingdb.org/jsp/dbsearch/PrimarySearch_ki.jsp?energyterm=kJ/mole&tag=r21&monomerid=234319&enzyme=Epidermal+growth+factor+receptor+%5B645-1186%5D&column=ki&startPg=0&Increment=50&submit=Search

>  <Ligand HET ID in PDB>


>  <PDB ID(s) for Ligand-Target Complex>


>  <PubChem CID of Ligand>
113220402

>  <PubChem SID of Ligand>
340094308

>  <ChEBI ID of Ligand>


>  <ChEMBL ID of Ligand>


>  <DrugBank ID of Ligand>


>  <IUPHAR_GRAC ID of Ligand>


>  <KEGG ID of Ligand>


>  <ZINC ID of Ligand>


>  <Number of Protein Chains in Target (bigger than 1 implies a multichain complex)>
1

>  <BindingDB Target Chain Sequence>
SIATGMVGALLLLLVVALGIGLFMRRRHIVRKRTLRRLLQERELVEPLTPSGEAPNQALLRILKETEFKKIKVLGSGAFGTVYKGLWIPEGEKVKIPVAIKELREATSPKANKEILDEAYVMASVDNPHVCRLLGICLTSTVQLITQLMPFGCLLDYVREHKDNIGSQYLLNWCVQIAKGMNYLEDRRLVHRDLAARNVLVKTPQHVKITDFGLAKLLGAEEKEYHAEGGKVPIKWMALESILHRIYTHQSDVWSYGVTVWELMTFGSKPYDGIPASEISSILEKGERLPQPPICTIDVYMIMVKCWMIDADSRPKFRELIIEFSKMARDPQRYLVIQGDERMHLPSPTDSNFYRALMDEEDMDDVVDADEYLIPQQGFFSSPSTSRTPLLSSLSATSNNSTVACIDRNGLQSCPIKEDSFLQRYSSDPTGALTEDSIDDTFLPVPEYINQSVPKRPAGSVQNPVYHNQPLNPAPSRDPHYQDPHSTAVGNPEYLNTVQPTCVNSTFDSPAHWAQKGSHQISLDNPDYQQDFFPKEAKPNGI

>  <PDB ID(s) of Target Chain>
1M14,1M17,1XKK,1Z9I,2GS2,2GS6,2ITW,2ITX,2ITY,2J5E,2J5F,2J6M,2RF9,2RGP,3BEL,3GOP,3POZ,3VJO,3W2O,3W2P,3W2Q,3W2R,3W2S,3W32,3W33,4G5J,4I23,4JQ7,4JQ8,4JR3,4JRV,4LI5,4RJ4,4RJ5,4RJ6,4RJ7,4RJ8,4TKS,4WKQ,4WRG,4ZAU,5C8K,5C8M,5C8N,5CAL,5CAN,5CAO,5CAP,5CAQ,5CAS,5CAU,5CAV,5EDP,5EDQ,5EDR,5EM5,5EM6,5EM7,5EM8,5GNK,5HCX,5HCY,5HCZ,5HIB,5HIC,5UGB,5Y25,6D8E,6JZ0,6S89,6S8A,6VH4,6VHN,6VHP,7AEI,7AEM,7B85,7OXB,7SI1,7UKV,7ZYM,7ZYN,7ZYP,8A27,8A2A,8HY7

>  <UniProt (SwissProt) Recommended Name of Target Chain>
Epidermal growth factor receptor

>  <UniProt (SwissProt) Entry Name of Target Chain>
EGFR_HUMAN

>  <UniProt (SwissProt) Primary ID of Target Chain>
P00533

>  <UniProt (SwissProt) Secondary ID(s) of Target Chain>
O00688 O00732 P06268 Q14225 Q68GS5 Q92795 Q9BZS2 Q9GZX1 Q9H2C9 Q9H3C9 Q9UMD7 Q9UMD8 Q9UMG5

>  <UniProt (SwissProt) Alternative ID(s) of Target Chain>


>  <UniProt (TrEMBL) Submitted Name of Target Chain>


>  <UniProt (TrEMBL) Entry Name of Target Chain>


>  <UniProt (TrEMBL) Primary ID of Target Chain>


>  <UniProt (TrEMBL) Secondary ID(s) of Target Chain>


>  <UniProt (TrEMBL) Alternative ID(s) of Target Chain>


$$$$
Untitled Document-1
 OpenBabel07052409033D

 27 28  0  0  0  0  0  0  0  0999 V2000
   -1.3717   -0.3140   -0.6152 C   0  0  0  0  0  0  0  0  0  0  0  0
   -2.7955   -0.0082   -0.3568 C   0  0  0  0  0  0  0  0  0  0  0  0
   -3.1927    1.1975    0.2604 C   0  0  0  0  0  0  0  0  0  0  0  0
   -4.5530    1.4416    0.5015 C   0  0  0  0  0  0  0  0  0  0  0  0
   -5.5173    0.5091    0.1138 C   0  0  0  0  0  0  0  0  0  0  0  0
   -5.1316   -0.6728   -0.5221 C   0  0  0  0  0  0  0  0  0  0  0  0
   -3.7781   -0.9287   -0.7609 C   0  0  0  0  0  0  0  0  0  0  0  0
   -1.0463   -0.8174   -1.7248 O   0  0  0  0  0  0  0  0  0  0  0  0
   -0.3701   -0.0519    0.3834 N   0  0  0  0  0  0  0  0  0  0  0  0
   -6.5913   -2.0739   -1.1178 I   0  0  0  0  0  0  0  0  0  0  0  0
   -2.2465    2.1621    0.6064 O   0  0  0  0  0  0  0  0  0  0  0  0
    1.0324   -0.2966    0.1845 C   0  0  0  0  0  0  0  0  0  0  0  0
    1.9837    0.6513    0.6110 C   0  0  0  0  0  0  0  0  0  0  0  0
    3.3503    0.3980    0.4421 C   0  0  0  0  0  0  0  0  0  0  0  0
    3.7791   -0.7999   -0.1369 C   0  0  0  0  0  0  0  0  0  0  0  0
    2.8412   -1.7519   -0.5447 C   0  0  0  0  0  0  0  0  0  0  0  0
    1.4755   -1.5058   -0.3806 C   0  0  0  0  0  0  0  0  0  0  0  0
    5.4929   -1.1116   -0.3431 Cl  0  0  0  0  0  0  0  0  0  0  0  0
    1.4881    2.1799    1.3265 Cl  0  0  0  0  0  0  0  0  0  0  0  0
   -4.8426    2.3154    0.9681 H   0  0  0  0  0  0  0  0  0  0  0  0
   -6.5160    0.6935    0.2974 H   0  0  0  0  0  0  0  0  0  0  0  0
   -3.4981   -1.8002   -1.2376 H   0  0  0  0  0  0  0  0  0  0  0  0
   -0.6607    0.3148    1.2496 H   0  0  0  0  0  0  0  0  0  0  0  0
   -1.3367    2.0041    0.4475 H   0  0  0  0  0  0  0  0  0  0  0  0
    4.0441    1.0988    0.7464 H   0  0  0  0  0  0  0  0  0  0  0  0
    3.1576   -2.6384   -0.9678 H   0  0  0  0  0  0  0  0  0  0  0  0
    0.7875   -2.2160   -0.6760 H   0  0  0  0  0  0  0  0  0  0  0  0
  1  2  1  0  0  0  0
  1  8  2  0  0  0  0
  1  9  1  0  0  0  0
  2  3  2  0  0  0  0
  2  7  1  0  0  0  0
  3  4  1  0  0  0  0
  3 11  1  0  0  0  0
  4  5  2  0  0  0  0
  4 20  1  0  0  0  0
  5  6  1  0  0  0  0
  5 21  1  0  0  0  0
  6  7  2  0  0  0  0
  6 10  1  0  0  0  0
  7 22  1  0  0  0  0
  9 12  1  0  0  0  0
  9 23  1  0  0  0  0
 11 24  1  0  0  0  0
 12 13  2  0  0  0  0
 12 17  1  0  0  0  0
 13 14  1  0  0  0  0
 13 19  1  0  0  0  0
 14 15  2  0  0  0  0
 14 25  1  0  0  0  0
 15 16  1  0  0  0  0
 15 18  1  0  0  0  0
 16 17  2  0  0  0  0
 16 26  1  0  0  0  0
 17 27  1  0  0  0  0
M  END
>  <From>
www.bindingDB.org

>  <BindingDB Reactant_set_id>
408369

>  <Ligand InChI>
InChI=1S/C13H8Cl2INO2/c14-7-1-3-11(10(15)5-7)17-13(19)9-6-8(16)2-4-12(9)18/h1-6,18H,(H,17,19)

>  <Ligand InChI Key>
KICCRVGNGYUTHW-UHFFFAOYSA-N

>  <BindingDB MonomerID>
234324

>  <BindingDB Ligand Name>
N-(2,4-dichlorophenyl)-2-hydroxy-5-iodobenzamide (26)

>  <Target Name>
Epidermal growth factor receptor [645-1186]

>  <Target Source Organism According to Curator or DataSource>


>  <Ki (nM)>


>  <IC50 (nM)>
9660

>  <Kd (nM)>


>  <EC50 (nM)>


>  <kon (M-1-s-1)>


>  <koff (s-1)>


>  <pH>
7.4

>  <Temp C>
25.00

>  <Curation/DataSource>
Curated from the literature by BindingDB

>  <Article DOI>
10.3109/14756361003671060

>  <BindingDB Entry DOI>
10.7270/Q2XW4HPN

>  <PMID>
20583855

>  <PubChem AID>
aid1802974

>  <Patent Number>


>  <Authors>
Zhu, ZW; Shi, L; Ruan, XM; Yang, Y; Li, HQ; Xu, SP; Zhu, HL

>  <Institution>
Nanjing University

>  <Link to Ligand in BindingDB>
http://www.bindingdb.org/bind/chemsearch/marvin/MolStructure.jsp?monomerid=234324

>  <Link to Ligand-Target Pair in BindingDB>
http://www.bindingdb.org/jsp/dbsearch/PrimarySearch_ki.jsp?energyterm=kJ/mole&tag=r21&monomerid=234324&enzyme=Epidermal+growth+factor+receptor+%5B645-1186%5D&column=ki&startPg=0&Increment=50&submit=Search

>  <Ligand HET ID in PDB>


>  <PDB ID(s) for Ligand-Target Complex>


>  <PubChem CID of Ligand>
21240360

>  <PubChem SID of Ligand>
340094313

>  <ChEBI ID of Ligand>


>  <ChEMBL ID of Ligand>


>  <DrugBank ID of Ligand>


>  <IUPHAR_GRAC ID of Ligand>


>  <KEGG ID of Ligand>


>  <ZINC ID of Ligand>


>  <Number of Protein Chains in Target (bigger than 1 implies a multichain complex)>
1

>  <BindingDB Target Chain Sequence>
SIATGMVGALLLLLVVALGIGLFMRRRHIVRKRTLRRLLQERELVEPLTPSGEAPNQALLRILKETEFKKIKVLGSGAFGTVYKGLWIPEGEKVKIPVAIKELREATSPKANKEILDEAYVMASVDNPHVCRLLGICLTSTVQLITQLMPFGCLLDYVREHKDNIGSQYLLNWCVQIAKGMNYLEDRRLVHRDLAARNVLVKTPQHVKITDFGLAKLLGAEEKEYHAEGGKVPIKWMALESILHRIYTHQSDVWSYGVTVWELMTFGSKPYDGIPASEISSILEKGERLPQPPICTIDVYMIMVKCWMIDADSRPKFRELIIEFSKMARDPQRYLVIQGDERMHLPSPTDSNFYRALMDEEDMDDVVDADEYLIPQQGFFSSPSTSRTPLLSSLSATSNNSTVACIDRNGLQSCPIKEDSFLQRYSSDPTGALTEDSIDDTFLPVPEYINQSVPKRPAGSVQNPVYHNQPLNPAPSRDPHYQDPHSTAVGNPEYLNTVQPTCVNSTFDSPAHWAQKGSHQISLDNPDYQQDFFPKEAKPNGI

>  <PDB ID(s) of Target Chain>
1M14,1M17,1XKK,1Z9I,2GS2,2GS6,2ITW,2ITX,2ITY,2J5E,2J5F,2J6M,2RF9,2RGP,3BEL,3GOP,3POZ,3VJO,3W2O,3W2P,3W2Q,3W2R,3W2S,3W32,3W33,4G5J,4I23,4JQ7,4JQ8,4JR3,4JRV,4LI5,4RJ4,4RJ5,4RJ6,4RJ7,4RJ8,4TKS,4WKQ,4WRG,4ZAU,5C8K,5C8M,5C8N,5CAL,5CAN,5CAO,5CAP,5CAQ,5CAS,5CAU,5CAV,5EDP,5EDQ,5EDR,5EM5,5EM6,5EM7,5EM8,5GNK,5HCX,5HCY,5HCZ,5HIB,5HIC,5UGB,5Y25,6D8E,6JZ0,6S89,6S8A,6VH4,6VHN,6VHP,7AEI,7AEM,7B85,7OXB,7SI1,7UKV,7ZYM,7ZYN,7ZYP,8A27,8A2A,8HY7

>  <UniProt (SwissProt) Recommended Name of Target Chain>
Epidermal growth factor receptor

>  <UniProt (SwissProt) Entry Name of Target Chain>
EGFR_HUMAN

>  <UniProt (SwissProt) Primary ID of Target Chain>
P00533

>  <UniProt (SwissProt) Secondary ID(s) of Target Chain>
O00688 O00732 P06268 Q14225 Q68GS5 Q92795 Q9BZS2 Q9GZX1 Q9H2C9 Q9H3C9 Q9UMD7 Q9UMD8 Q9UMG5

>  <UniProt (SwissProt) Alternative ID(s) of Target Chain>


>  <UniProt (TrEMBL) Submitted Name of Target Chain>


>  <UniProt (TrEMBL) Entry Name of Target Chain>


>  <UniProt (TrEMBL) Primary ID of Target Chain>


>  <UniProt (TrEMBL) Secondary ID(s) of Target Chain>


>  <UniProt (TrEMBL) Alternative ID(s) of Target Chain>


$$$$
Untitled Document-1
 OpenBabel07052409033D

 27 28  0  0  0  0  0  0  0  0999 V2000
   -1.4263   -0.5913   -0.1003 C   0  0  0  0  0  0  0  0  0  0  0  0
   -2.8257   -0.1176   -0.1646 C   0  0  0  0  0  0  0  0  0  0  0  0
   -3.2403    1.0550    0.5044 C   0  0  0  0  0  0  0  0  0  0  0  0
   -4.5819    1.4798    0.3985 C   0  0  0  0  0  0  0  0  0  0  0  0
   -5.4967    0.7267   -0.3441 C   0  0  0  0  0  0  0  0  0  0  0  0
   -5.0925   -0.4482   -0.9792 C   0  0  0  0  0  0  0  0  0  0  0  0
   -3.7652   -0.8710   -0.8867 C   0  0  0  0  0  0  0  0  0  0  0  0
   -1.2059   -1.8132    0.1198 O   0  0  0  0  0  0  0  0  0  0  0  0
   -0.3315    0.3230   -0.2916 N   0  0  0  0  0  0  0  0  0  0  0  0
   -2.3228    1.7620    1.2858 O   0  0  0  0  0  0  0  0  0  0  0  0
    1.0530   -0.0629   -0.2699 C   0  0  0  0  0  0  0  0  0  0  0  0
    1.9981    0.8038    0.3002 C   0  0  0  0  0  0  0  0  0  0  0  0
    3.3542    0.4637    0.3131 C   0  0  0  0  0  0  0  0  0  0  0  0
    3.7807   -0.7387   -0.2590 C   0  0  0  0  0  0  0  0  0  0  0  0
    2.8497   -1.5968   -0.8525 C   0  0  0  0  0  0  0  0  0  0  0  0
    1.4926   -1.2595   -0.8657 C   0  0  0  0  0  0  0  0  0  0  0  0
    5.4827   -1.1629   -0.2456 Cl  0  0  0  0  0  0  0  0  0  0  0  0
   -6.3542   -1.4745   -1.9808 Br  0  0  0  0  0  0  0  0  0  0  0  0
   -5.2159    3.0702    1.2606 Br  0  0  0  0  0  0  0  0  0  0  0  0
   -6.4763    1.0416   -0.4229 H   0  0  0  0  0  0  0  0  0  0  0  0
   -3.4723   -1.7440   -1.3526 H   0  0  0  0  0  0  0  0  0  0  0  0
   -0.5440    1.2717   -0.4470 H   0  0  0  0  0  0  0  0  0  0  0  0
   -1.4351    1.4683    1.3469 H   0  0  0  0  0  0  0  0  0  0  0  0
    1.6901    1.6982    0.7127 H   0  0  0  0  0  0  0  0  0  0  0  0
    4.0412    1.1010    0.7454 H   0  0  0  0  0  0  0  0  0  0  0  0
    3.1647   -2.4809   -1.2817 H   0  0  0  0  0  0  0  0  0  0  0  0
    0.8106   -1.8909   -1.3143 H   0  0  0  0  0  0  0  0  0  0  0  0
  1  2  1  0  0  0  0
  1  8  2  0  0  0  0
  1  9  1  0  0  0  0
  2  3  2  0  0  0  0
  2  7  1  0  0  0  0
  3  4  1  0  0  0  0
  3 10  1  0  0  0  0
  4  5  2  0  0  0  0
  4 19  1  0  0  0  0
  5  6  1  0  0  0  0
  5 20  1  0  0  0  0
  6  7  2  0  0  0  0
  6 18  1  0  0  0  0
  7 21  1  0  0  0  0
  9 11  1  0  0  0  0
  9 22  1  0  0  0  0
 10 23  1  0  0  0  0
 11 12  2  0  0  0  0
 11 16  1  0  0  0  0
 12 13  1  0  0  0  0
 12 24  1  0  0  0  0
 13 14  2  0  0  0  0
 13 25  1  0  0  0  0
 14 15  1  0  0  0  0
 14 17  1  0  0  0  0
 15 16  2  0  0  0  0
 15 26  1  0  0  0  0
 16 27  1  0  0  0  0
M  END
>  <From>
www.bindingDB.org

>  <BindingDB Reactant_set_id>
408373

>  <Ligand InChI>
InChI=1S/C13H8Br2ClNO2/c14-7-5-10(12(18)11(15)6-7)13(19)17-9-3-1-8(16)2-4-9/h1-6,18H,(H,17,19)

>  <Ligand InChI Key>
YVVILFKWXBZXAA-UHFFFAOYSA-N

>  <BindingDB MonomerID>
234328

>  <BindingDB Ligand Name>
3,5-Dibromo-N-(4-chlorophenyl)-2-hydroxybenzamide (30)

>  <Target Name>
Epidermal growth factor receptor [645-1186]

>  <Target Source Organism According to Curator or DataSource>


>  <Ki (nM)>


>  <IC50 (nM)>
12190

>  <Kd (nM)>


>  <EC50 (nM)>


>  <kon (M-1-s-1)>


>  <koff (s-1)>


>  <pH>
7.4

>  <Temp C>
25.00

>  <Curation/DataSource>
Curated from the literature by BindingDB

>  <Article DOI>
10.3109/14756361003671060

>  <BindingDB Entry DOI>
10.7270/Q2XW4HPN

>  <PMID>
20583855

>  <PubChem AID>
aid1802974

>  <Patent Number>


>  <Authors>
Zhu, ZW; Shi, L; Ruan, XM; Yang, Y; Li, HQ; Xu, SP; Zhu, HL

>  <Institution>
Nanjing University

>  <Link to Ligand in BindingDB>
http://www.bindingdb.org/bind/chemsearch/marvin/MolStructure.jsp?monomerid=234328

>  <Link to Ligand-Target Pair in BindingDB>
http://www.bindingdb.org/jsp/dbsearch/PrimarySearch_ki.jsp?energyterm=kJ/mole&tag=r21&monomerid=234328&enzyme=Epidermal+growth+factor+receptor+%5B645-1186%5D&column=ki&startPg=0&Increment=50&submit=Search

>  <Ligand HET ID in PDB>


>  <PDB ID(s) for Ligand-Target Complex>


>  <PubChem CID of Ligand>
352408

>  <PubChem SID of Ligand>
340094317

>  <ChEBI ID of Ligand>


>  <ChEMBL ID of Ligand>


>  <DrugBank ID of Ligand>


>  <IUPHAR_GRAC ID of Ligand>


>  <KEGG ID of Ligand>


>  <ZINC ID of Ligand>


>  <Number of Protein Chains in Target (bigger than 1 implies a multichain complex)>
1

>  <BindingDB Target Chain Sequence>
SIATGMVGALLLLLVVALGIGLFMRRRHIVRKRTLRRLLQERELVEPLTPSGEAPNQALLRILKETEFKKIKVLGSGAFGTVYKGLWIPEGEKVKIPVAIKELREATSPKANKEILDEAYVMASVDNPHVCRLLGICLTSTVQLITQLMPFGCLLDYVREHKDNIGSQYLLNWCVQIAKGMNYLEDRRLVHRDLAARNVLVKTPQHVKITDFGLAKLLGAEEKEYHAEGGKVPIKWMALESILHRIYTHQSDVWSYGVTVWELMTFGSKPYDGIPASEISSILEKGERLPQPPICTIDVYMIMVKCWMIDADSRPKFRELIIEFSKMARDPQRYLVIQGDERMHLPSPTDSNFYRALMDEEDMDDVVDADEYLIPQQGFFSSPSTSRTPLLSSLSATSNNSTVACIDRNGLQSCPIKEDSFLQRYSSDPTGALTEDSIDDTFLPVPEYINQSVPKRPAGSVQNPVYHNQPLNPAPSRDPHYQDPHSTAVGNPEYLNTVQPTCVNSTFDSPAHWAQKGSHQISLDNPDYQQDFFPKEAKPNGI

>  <PDB ID(s) of Target Chain>
1M14,1M17,1XKK,1Z9I,2GS2,2GS6,2ITW,2ITX,2ITY,2J5E,2J5F,2J6M,2RF9,2RGP,3BEL,3GOP,3POZ,3VJO,3W2O,3W2P,3W2Q,3W2R,3W2S,3W32,3W33,4G5J,4I23,4JQ7,4JQ8,4JR3,4JRV,4LI5,4RJ4,4RJ5,4RJ6,4RJ7,4RJ8,4TKS,4WKQ,4WRG,4ZAU,5C8K,5C8M,5C8N,5CAL,5CAN,5CAO,5CAP,5CAQ,5CAS,5CAU,5CAV,5EDP,5EDQ,5EDR,5EM5,5EM6,5EM7,5EM8,5GNK,5HCX,5HCY,5HCZ,5HIB,5HIC,5UGB,5Y25,6D8E,6JZ0,6S89,6S8A,6VH4,6VHN,6VHP,7AEI,7AEM,7B85,7OXB,7SI1,7UKV,7ZYM,7ZYN,7ZYP,8A27,8A2A,8HY7

>  <UniProt (SwissProt) Recommended Name of Target Chain>
Epidermal growth factor receptor

>  <UniProt (SwissProt) Entry Name of Target Chain>
EGFR_HUMAN

>  <UniProt (SwissProt) Primary ID of Target Chain>
P00533

>  <UniProt (SwissProt) Secondary ID(s) of Target Chain>
O00688 O00732 P06268 Q14225 Q68GS5 Q92795 Q9BZS2 Q9GZX1 Q9H2C9 Q9H3C9 Q9UMD7 Q9UMD8 Q9UMG5

>  <UniProt (SwissProt) Alternative ID(s) of Target Chain>


>  <UniProt (TrEMBL) Submitted Name of Target Chain>


>  <UniProt (TrEMBL) Entry Name of Target Chain>


>  <UniProt (TrEMBL) Primary ID of Target Chain>


>  <UniProt (TrEMBL) Secondary ID(s) of Target Chain>


>  <UniProt (TrEMBL) Alternative ID(s) of Target Chain>


$$$$
Untitled Document-1
 OpenBabel07052409033D

 27 28  0  0  0  0  0  0  0  0999 V2000
   -1.3728   -0.2823   -0.6441 C   0  0  0  0  0  0  0  0  0  0  0  0
   -2.7966    0.0075   -0.3692 C   0  0  0  0  0  0  0  0  0  0  0  0
   -3.2029    1.2179    0.2323 C   0  0  0  0  0  0  0  0  0  0  0  0
   -4.5631    1.4458    0.4895 C   0  0  0  0  0  0  0  0  0  0  0  0
   -5.5187    0.4923    0.1328 C   0  0  0  0  0  0  0  0  0  0  0  0
   -5.1244   -0.6948   -0.4881 C   0  0  0  0  0  0  0  0  0  0  0  0
   -3.7707   -0.9344   -0.7426 C   0  0  0  0  0  0  0  0  0  0  0  0
   -1.0556   -0.7712   -1.7623 O   0  0  0  0  0  0  0  0  0  0  0  0
   -0.3634   -0.0180    0.3471 N   0  0  0  0  0  0  0  0  0  0  0  0
   -6.5711   -2.1279   -1.0376 I   0  0  0  0  0  0  0  0  0  0  0  0
   -2.2664    2.2026    0.5465 O   0  0  0  0  0  0  0  0  0  0  0  0
    1.0352   -0.2956    0.1656 C   0  0  0  0  0  0  0  0  0  0  0  0
    1.9852    0.5915    0.6949 C   0  0  0  0  0  0  0  0  0  0  0  0
    3.3520    0.3330    0.5534 C   0  0  0  0  0  0  0  0  0  0  0  0
    3.7821   -0.8238   -0.1038 C   0  0  0  0  0  0  0  0  0  0  0  0
    2.8430   -1.7268   -0.6118 C   0  0  0  0  0  0  0  0  0  0  0  0
    1.4753   -1.4699   -0.4726 C   0  0  0  0  0  0  0  0  0  0  0  0
    5.4970   -1.1492   -0.2776 Cl  0  0  0  0  0  0  0  0  0  0  0  0
   -4.8591    2.3233    0.9450 H   0  0  0  0  0  0  0  0  0  0  0  0
   -6.5172    0.6650    0.3282 H   0  0  0  0  0  0  0  0  0  0  0  0
   -3.4845   -1.8097   -1.2083 H   0  0  0  0  0  0  0  0  0  0  0  0
   -0.6485    0.3774    1.2024 H   0  0  0  0  0  0  0  0  0  0  0  0
   -1.3568    2.0553    0.3767 H   0  0  0  0  0  0  0  0  0  0  0  0
    1.6729    1.4403    1.1919 H   0  0  0  0  0  0  0  0  0  0  0  0
    4.0442    0.9968    0.9345 H   0  0  0  0  0  0  0  0  0  0  0  0
    3.1598   -2.5845   -1.0904 H   0  0  0  0  0  0  0  0  0  0  0  0
    0.7859   -2.1445   -0.8395 H   0  0  0  0  0  0  0  0  0  0  0  0
  1  2  1  0  0  0  0
  1  8  2  0  0  0  0
  1  9  1  0  0  0  0
  2  3  2  0  0  0  0
  2  7  1  0  0  0  0
  3  4  1  0  0  0  0
  3 11  1  0  0  0  0
  4  5  2  0  0  0  0
  4 19  1  0  0  0  0
  5  6  1  0  0  0  0
  5 20  1  0  0  0  0
  6  7  2  0  0  0  0
  6 10  1  0  0  0  0
  7 21  1  0  0  0  0
  9 12  1  0  0  0  0
  9 22  1  0  0  0  0
 11 23  1  0  0  0  0
 12 13  2  0  0  0  0
 12 17  1  0  0  0  0
 13 14  1  0  0  0  0
 13 24  1  0  0  0  0
 14 15  2  0  0  0  0
 14 25  1  0  0  0  0
 15 16  1  0  0  0  0
 15 18  1  0  0  0  0
 16 17  2  0  0  0  0
 16 26  1  0  0  0  0
 17 27  1  0  0  0  0
M  END
>  <From>
www.bindingDB.org

>  <BindingDB Reactant_set_id>
408367

>  <Ligand InChI>
InChI=1S/C13H9ClINO2/c14-8-1-4-10(5-2-8)16-13(18)11-7-9(15)3-6-12(11)17/h1-7,17H,(H,16,18)

>  <Ligand InChI Key>
HXDYOSSLXZJTCX-UHFFFAOYSA-N

>  <BindingDB MonomerID>
234322

>  <BindingDB Ligand Name>
N-(4-chlorophenyl)-2-hydroxy-5-iodobenzamide (24)

>  <Target Name>
Epidermal growth factor receptor [645-1186]

>  <Target Source Organism According to Curator or DataSource>


>  <Ki (nM)>


>  <IC50 (nM)>
13040

>  <Kd (nM)>


>  <EC50 (nM)>


>  <kon (M-1-s-1)>


>  <koff (s-1)>


>  <pH>
7.4

>  <Temp C>
25.00

>  <Curation/DataSource>
Curated from the literature by BindingDB

>  <Article DOI>
10.3109/14756361003671060

>  <BindingDB Entry DOI>
10.7270/Q2XW4HPN

>  <PMID>
20583855

>  <PubChem AID>
aid1802974

>  <Patent Number>


>  <Authors>
Zhu, ZW; Shi, L; Ruan, XM; Yang, Y; Li, HQ; Xu, SP; Zhu, HL

>  <Institution>
Nanjing University

>  <Link to Ligand in BindingDB>
http://www.bindingdb.org/bind/chemsearch/marvin/MolStructure.jsp?monomerid=234322

>  <Link to Ligand-Target Pair in BindingDB>
http://www.bindingdb.org/jsp/dbsearch/PrimarySearch_ki.jsp?energyterm=kJ/mole&tag=r21&monomerid=234322&enzyme=Epidermal+growth+factor+receptor+%5B645-1186%5D&column=ki&startPg=0&Increment=50&submit=Search

>  <Ligand HET ID in PDB>


>  <PDB ID(s) for Ligand-Target Complex>


>  <PubChem CID of Ligand>
10248786

>  <PubChem SID of Ligand>
340094311

>  <ChEBI ID of Ligand>


>  <ChEMBL ID of Ligand>


>  <DrugBank ID of Ligand>


>  <IUPHAR_GRAC ID of Ligand>


>  <KEGG ID of Ligand>


>  <ZINC ID of Ligand>


>  <Number of Protein Chains in Target (bigger than 1 implies a multichain complex)>
1

>  <BindingDB Target Chain Sequence>
SIATGMVGALLLLLVVALGIGLFMRRRHIVRKRTLRRLLQERELVEPLTPSGEAPNQALLRILKETEFKKIKVLGSGAFGTVYKGLWIPEGEKVKIPVAIKELREATSPKANKEILDEAYVMASVDNPHVCRLLGICLTSTVQLITQLMPFGCLLDYVREHKDNIGSQYLLNWCVQIAKGMNYLEDRRLVHRDLAARNVLVKTPQHVKITDFGLAKLLGAEEKEYHAEGGKVPIKWMALESILHRIYTHQSDVWSYGVTVWELMTFGSKPYDGIPASEISSILEKGERLPQPPICTIDVYMIMVKCWMIDADSRPKFRELIIEFSKMARDPQRYLVIQGDERMHLPSPTDSNFYRALMDEEDMDDVVDADEYLIPQQGFFSSPSTSRTPLLSSLSATSNNSTVACIDRNGLQSCPIKEDSFLQRYSSDPTGALTEDSIDDTFLPVPEYINQSVPKRPAGSVQNPVYHNQPLNPAPSRDPHYQDPHSTAVGNPEYLNTVQPTCVNSTFDSPAHWAQKGSHQISLDNPDYQQDFFPKEAKPNGI

>  <PDB ID(s) of Target Chain>
1M14,1M17,1XKK,1Z9I,2GS2,2GS6,2ITW,2ITX,2ITY,2J5E,2J5F,2J6M,2RF9,2RGP,3BEL,3GOP,3POZ,3VJO,3W2O,3W2P,3W2Q,3W2R,3W2S,3W32,3W33,4G5J,4I23,4JQ7,4JQ8,4JR3,4JRV,4LI5,4RJ4,4RJ5,4RJ6,4RJ7,4RJ8,4TKS,4WKQ,4WRG,4ZAU,5C8K,5C8M,5C8N,5CAL,5CAN,5CAO,5CAP,5CAQ,5CAS,5CAU,5CAV,5EDP,5EDQ,5EDR,5EM5,5EM6,5EM7,5EM8,5GNK,5HCX,5HCY,5HCZ,5HIB,5HIC,5UGB,5Y25,6D8E,6JZ0,6S89,6S8A,6VH4,6VHN,6VHP,7AEI,7AEM,7B85,7OXB,7SI1,7UKV,7ZYM,7ZYN,7ZYP,8A27,8A2A,8HY7

>  <UniProt (SwissProt) Recommended Name of Target Chain>
Epidermal growth factor receptor

>  <UniProt (SwissProt) Entry Name of Target Chain>
EGFR_HUMAN

>  <UniProt (SwissProt) Primary ID of Target Chain>
P00533

>  <UniProt (SwissProt) Secondary ID(s) of Target Chain>
O00688 O00732 P06268 Q14225 Q68GS5 Q92795 Q9BZS2 Q9GZX1 Q9H2C9 Q9H3C9 Q9UMD7 Q9UMD8 Q9UMG5

>  <UniProt (SwissProt) Alternative ID(s) of Target Chain>


>  <UniProt (TrEMBL) Submitted Name of Target Chain>


>  <UniProt (TrEMBL) Entry Name of Target Chain>


>  <UniProt (TrEMBL) Primary ID of Target Chain>


>  <UniProt (TrEMBL) Secondary ID(s) of Target Chain>


>  <UniProt (TrEMBL) Alternative ID(s) of Target Chain>


$$$$
Untitled Document-1
 OpenBabel07052409033D

 27 28  0  0  0  0  0  0  0  0999 V2000
   -1.4302   -0.6004    0.0822 C   0  0  0  0  0  0  0  0  0  0  0  0
   -2.8303   -0.1352   -0.0179 C   0  0  0  0  0  0  0  0  0  0  0  0
   -3.2328    1.1166    0.4946 C   0  0  0  0  0  0  0  0  0  0  0  0
   -4.5684    1.5258    0.3647 C   0  0  0  0  0  0  0  0  0  0  0  0
   -5.5060    0.6920   -0.2479 C   0  0  0  0  0  0  0  0  0  0  0  0
   -5.1187   -0.5595   -0.7315 C   0  0  0  0  0  0  0  0  0  0  0  0
   -3.7887   -0.9737   -0.6130 C   0  0  0  0  0  0  0  0  0  0  0  0
   -1.2073   -1.7886    0.4409 O   0  0  0  0  0  0  0  0  0  0  0  0
   -0.3374    0.2827   -0.2294 N   0  0  0  0  0  0  0  0  0  0  0  0
   -6.5397   -1.8225   -1.6449 I   0  0  0  0  0  0  0  0  0  0  0  0
   -2.3202    1.9384    1.1559 O   0  0  0  0  0  0  0  0  0  0  0  0
    1.0469   -0.1015   -0.1812 C   0  0  0  0  0  0  0  0  0  0  0  0
    1.4773   -1.3605   -0.6392 C   0  0  0  0  0  0  0  0  0  0  0  0
    2.8342   -1.6973   -0.6048 C   0  0  0  0  0  0  0  0  0  0  0  0
    3.7738   -0.7782   -0.1280 C   0  0  0  0  0  0  0  0  0  0  0  0
    3.3563    0.4837    0.3055 C   0  0  0  0  0  0  0  0  0  0  0  0
    2.0005    0.8235    0.2712 C   0  0  0  0  0  0  0  0  0  0  0  0
    5.6265   -1.2398   -0.0845 Br  0  0  0  0  0  0  0  0  0  0  0  0
   -4.8596    2.4484    0.7240 H   0  0  0  0  0  0  0  0  0  0  0  0
   -6.4861    1.0009   -0.3434 H   0  0  0  0  0  0  0  0  0  0  0  0
   -3.5084   -1.9024   -0.9652 H   0  0  0  0  0  0  0  0  0  0  0  0
   -0.5512    1.2072   -0.4918 H   0  0  0  0  0  0  0  0  0  0  0  0
   -1.4270    1.6697    1.2454 H   0  0  0  0  0  0  0  0  0  0  0  0
    0.7887   -2.0382   -1.0020 H   0  0  0  0  0  0  0  0  0  0  0  0
    3.1426   -2.6262   -0.9320 H   0  0  0  0  0  0  0  0  0  0  0  0
    4.0498    1.1653    0.6513 H   0  0  0  0  0  0  0  0  0  0  0  0
    1.6990    1.7607    0.5806 H   0  0  0  0  0  0  0  0  0  0  0  0
  1  2  1  0  0  0  0
  1  8  2  0  0  0  0
  1  9  1  0  0  0  0
  2  3  2  0  0  0  0
  2  7  1  0  0  0  0
  3  4  1  0  0  0  0
  3 11  1  0  0  0  0
  4  5  2  0  0  0  0
  4 19  1  0  0  0  0
  5  6  1  0  0  0  0
  5 20  1  0  0  0  0
  6  7  2  0  0  0  0
  6 10  1  0  0  0  0
  7 21  1  0  0  0  0
  9 12  1  0  0  0  0
  9 22  1  0  0  0  0
 11 23  1  0  0  0  0
 12 13  2  0  0  0  0
 12 17  1  0  0  0  0
 13 14  1  0  0  0  0
 13 24  1  0  0  0  0
 14 15  2  0  0  0  0
 14 25  1  0  0  0  0
 15 16  1  0  0  0  0
 15 18  1  0  0  0  0
 16 17  2  0  0  0  0
 16 26  1  0  0  0  0
 17 27  1  0  0  0  0
M  END
>  <From>
www.bindingDB.org

>  <BindingDB Reactant_set_id>
408368

>  <Ligand InChI>
InChI=1S/C13H9BrINO2/c14-8-1-4-10(5-2-8)16-13(18)11-7-9(15)3-6-12(11)17/h1-7,17H,(H,16,18)

>  <Ligand InChI Key>
ODJWEOWHYPZENX-UHFFFAOYSA-N

>  <BindingDB MonomerID>
234323

>  <BindingDB Ligand Name>
N-(4-bromophenyl)-2-hydroxy-5-iodobenzamide (25)

>  <Target Name>
Epidermal growth factor receptor [645-1186]

>  <Target Source Organism According to Curator or DataSource>


>  <Ki (nM)>


>  <IC50 (nM)>
13700

>  <Kd (nM)>


>  <EC50 (nM)>


>  <kon (M-1-s-1)>


>  <koff (s-1)>


>  <pH>
7.4

>  <Temp C>
25.00

>  <Curation/DataSource>
Curated from the literature by BindingDB

>  <Article DOI>
10.3109/14756361003671060

>  <BindingDB Entry DOI>
10.7270/Q2XW4HPN

>  <PMID>
20583855

>  <PubChem AID>
aid1802974

>  <Patent Number>


>  <Authors>
Zhu, ZW; Shi, L; Ruan, XM; Yang, Y; Li, HQ; Xu, SP; Zhu, HL

>  <Institution>
Nanjing University

>  <Link to Ligand in BindingDB>
http://www.bindingdb.org/bind/chemsearch/marvin/MolStructure.jsp?monomerid=234323

>  <Link to Ligand-Target Pair in BindingDB>
http://www.bindingdb.org/jsp/dbsearch/PrimarySearch_ki.jsp?energyterm=kJ/mole&tag=r21&monomerid=234323&enzyme=Epidermal+growth+factor+receptor+%5B645-1186%5D&column=ki&startPg=0&Increment=50&submit=Search

>  <Ligand HET ID in PDB>


>  <PDB ID(s) for Ligand-Target Complex>


>  <PubChem CID of Ligand>
11998374

>  <PubChem SID of Ligand>
340094312

>  <ChEBI ID of Ligand>


>  <ChEMBL ID of Ligand>


>  <DrugBank ID of Ligand>


>  <IUPHAR_GRAC ID of Ligand>


>  <KEGG ID of Ligand>


>  <ZINC ID of Ligand>


>  <Number of Protein Chains in Target (bigger than 1 implies a multichain complex)>
1

>  <BindingDB Target Chain Sequence>
SIATGMVGALLLLLVVALGIGLFMRRRHIVRKRTLRRLLQERELVEPLTPSGEAPNQALLRILKETEFKKIKVLGSGAFGTVYKGLWIPEGEKVKIPVAIKELREATSPKANKEILDEAYVMASVDNPHVCRLLGICLTSTVQLITQLMPFGCLLDYVREHKDNIGSQYLLNWCVQIAKGMNYLEDRRLVHRDLAARNVLVKTPQHVKITDFGLAKLLGAEEKEYHAEGGKVPIKWMALESILHRIYTHQSDVWSYGVTVWELMTFGSKPYDGIPASEISSILEKGERLPQPPICTIDVYMIMVKCWMIDADSRPKFRELIIEFSKMARDPQRYLVIQGDERMHLPSPTDSNFYRALMDEEDMDDVVDADEYLIPQQGFFSSPSTSRTPLLSSLSATSNNSTVACIDRNGLQSCPIKEDSFLQRYSSDPTGALTEDSIDDTFLPVPEYINQSVPKRPAGSVQNPVYHNQPLNPAPSRDPHYQDPHSTAVGNPEYLNTVQPTCVNSTFDSPAHWAQKGSHQISLDNPDYQQDFFPKEAKPNGI

>  <PDB ID(s) of Target Chain>
1M14,1M17,1XKK,1Z9I,2GS2,2GS6,2ITW,2ITX,2ITY,2J5E,2J5F,2J6M,2RF9,2RGP,3BEL,3GOP,3POZ,3VJO,3W2O,3W2P,3W2Q,3W2R,3W2S,3W32,3W33,4G5J,4I23,4JQ7,4JQ8,4JR3,4JRV,4LI5,4RJ4,4RJ5,4RJ6,4RJ7,4RJ8,4TKS,4WKQ,4WRG,4ZAU,5C8K,5C8M,5C8N,5CAL,5CAN,5CAO,5CAP,5CAQ,5CAS,5CAU,5CAV,5EDP,5EDQ,5EDR,5EM5,5EM6,5EM7,5EM8,5GNK,5HCX,5HCY,5HCZ,5HIB,5HIC,5UGB,5Y25,6D8E,6JZ0,6S89,6S8A,6VH4,6VHN,6VHP,7AEI,7AEM,7B85,7OXB,7SI1,7UKV,7ZYM,7ZYN,7ZYP,8A27,8A2A,8HY7

>  <UniProt (SwissProt) Recommended Name of Target Chain>
Epidermal growth factor receptor

>  <UniProt (SwissProt) Entry Name of Target Chain>
EGFR_HUMAN

>  <UniProt (SwissProt) Primary ID of Target Chain>
P00533

>  <UniProt (SwissProt) Secondary ID(s) of Target Chain>
O00688 O00732 P06268 Q14225 Q68GS5 Q92795 Q9BZS2 Q9GZX1 Q9H2C9 Q9H3C9 Q9UMD7 Q9UMD8 Q9UMG5

>  <UniProt (SwissProt) Alternative ID(s) of Target Chain>


>  <UniProt (TrEMBL) Submitted Name of Target Chain>


>  <UniProt (TrEMBL) Entry Name of Target Chain>


>  <UniProt (TrEMBL) Primary ID of Target Chain>


>  <UniProt (TrEMBL) Secondary ID(s) of Target Chain>


>  <UniProt (TrEMBL) Alternative ID(s) of Target Chain>


$$$$
Untitled Document-1
 OpenBabel07052409033D

 27 28  0  0  0  0  0  0  0  0999 V2000
   -1.4027   -0.5030   -0.3639 C   0  0  0  0  0  0  0  0  0  0  0  0
   -2.8156   -0.0660   -0.2711 C   0  0  0  0  0  0  0  0  0  0  0  0
   -3.2123    0.9769    0.5956 C   0  0  0  0  0  0  0  0  0  0  0  0
   -4.5581    1.3714    0.6429 C   0  0  0  0  0  0  0  0  0  0  0  0
   -5.5114    0.7263   -0.1471 C   0  0  0  0  0  0  0  0  0  0  0  0
   -5.1294   -0.3197   -0.9875 C   0  0  0  0  0  0  0  0  0  0  0  0
   -3.7914   -0.7175   -1.0478 C   0  0  0  0  0  0  0  0  0  0  0  0
   -1.1448   -1.7118   -0.6171 O   0  0  0  0  0  0  0  0  0  0  0  0
   -0.3297    0.4440   -0.2360 N   0  0  0  0  0  0  0  0  0  0  0  0
   -2.2822    1.6028    1.4257 O   0  0  0  0  0  0  0  0  0  0  0  0
    1.0310    0.0649    0.0396 C   0  0  0  0  0  0  0  0  0  0  0  0
    2.1034    0.7892   -0.5229 C   0  0  0  0  0  0  0  0  0  0  0  0
    3.4239    0.4290   -0.2267 C   0  0  0  0  0  0  0  0  0  0  0  0
    3.6874   -0.6390    0.6335 C   0  0  0  0  0  0  0  0  0  0  0  0
    2.6324   -1.3512    1.2058 C   0  0  0  0  0  0  0  0  0  0  0  0
    1.3114   -1.0005    0.9159 C   0  0  0  0  0  0  0  0  0  0  0  0
    1.8270    2.1283   -1.6300 Cl  0  0  0  0  0  0  0  0  0  0  0  0
   -4.8449    2.1430    1.2654 H   0  0  0  0  0  0  0  0  0  0  0  0
   -6.4990    1.0233   -0.1094 H   0  0  0  0  0  0  0  0  0  0  0  0
   -5.8363   -0.8004   -1.5656 H   0  0  0  0  0  0  0  0  0  0  0  0
   -3.5165   -1.4958   -1.6673 H   0  0  0  0  0  0  0  0  0  0  0  0
   -0.5358    1.4008   -0.3423 H   0  0  0  0  0  0  0  0  0  0  0  0
   -1.3820    1.3443    1.3992 H   0  0  0  0  0  0  0  0  0  0  0  0
    4.2061    0.9554   -0.6462 H   0  0  0  0  0  0  0  0  0  0  0  0
    4.6625   -0.9017    0.8461 H   0  0  0  0  0  0  0  0  0  0  0  0
    2.8283   -2.1381    1.8441 H   0  0  0  0  0  0  0  0  0  0  0  0
    0.5354   -1.5265    1.3474 H   0  0  0  0  0  0  0  0  0  0  0  0
  1  2  1  0  0  0  0
  1  8  2  0  0  0  0
  1  9  1  0  0  0  0
  2  3  2  0  0  0  0
  2  7  1  0  0  0  0
  3  4  1  0  0  0  0
  3 10  1  0  0  0  0
  4  5  2  0  0  0  0
  4 18  1  0  0  0  0
  5  6  1  0  0  0  0
  5 19  1  0  0  0  0
  6  7  2  0  0  0  0
  6 20  1  0  0  0  0
  7 21  1  0  0  0  0
  9 11  1  0  0  0  0
  9 22  1  0  0  0  0
 10 23  1  0  0  0  0
 11 12  2  0  0  0  0
 11 16  1  0  0  0  0
 12 13  1  0  0  0  0
 12 17  1  0  0  0  0
 13 14  2  0  0  0  0
 13 24  1  0  0  0  0
 14 15  1  0  0  0  0
 14 25  1  0  0  0  0
 15 16  2  0  0  0  0
 15 26  1  0  0  0  0
 16 27  1  0  0  0  0
M  END
>  <From>
www.bindingDB.org

>  <BindingDB Reactant_set_id>
408346

>  <Ligand InChI>
InChI=1S/C13H10ClNO2/c14-10-6-2-3-7-11(10)15-13(17)9-5-1-4-8-12(9)16/h1-8,16H,(H,15,17)

>  <Ligand InChI Key>
KFIQAGIXMXTUIM-UHFFFAOYSA-N

>  <BindingDB MonomerID>
234302

>  <BindingDB Ligand Name>
N-(2-chlorophenyl)-2-hydroxybenzamide (3)

>  <Target Name>
Epidermal growth factor receptor [645-1186]

>  <Target Source Organism According to Curator or DataSource>


>  <Ki (nM)>


>  <IC50 (nM)>
14180

>  <Kd (nM)>


>  <EC50 (nM)>


>  <kon (M-1-s-1)>


>  <koff (s-1)>


>  <pH>
7.4

>  <Temp C>
25.00

>  <Curation/DataSource>
Curated from the literature by BindingDB

>  <Article DOI>
10.3109/14756361003671060

>  <BindingDB Entry DOI>
10.7270/Q2XW4HPN

>  <PMID>
20583855

>  <PubChem AID>
aid1802974

>  <Patent Number>


>  <Authors>
Zhu, ZW; Shi, L; Ruan, XM; Yang, Y; Li, HQ; Xu, SP; Zhu, HL

>  <Institution>
Nanjing University

>  <Link to Ligand in BindingDB>
http://www.bindingdb.org/bind/chemsearch/marvin/MolStructure.jsp?monomerid=234302

>  <Link to Ligand-Target Pair in BindingDB>
http://www.bindingdb.org/jsp/dbsearch/PrimarySearch_ki.jsp?energyterm=kJ/mole&tag=r21&monomerid=234302&enzyme=Epidermal+growth+factor+receptor+%5B645-1186%5D&column=ki&startPg=0&Increment=50&submit=Search

>  <Ligand HET ID in PDB>


>  <PDB ID(s) for Ligand-Target Complex>


>  <PubChem CID of Ligand>
247956

>  <PubChem SID of Ligand>
340094291

>  <ChEBI ID of Ligand>


>  <ChEMBL ID of Ligand>


>  <DrugBank ID of Ligand>


>  <IUPHAR_GRAC ID of Ligand>


>  <KEGG ID of Ligand>


>  <ZINC ID of Ligand>


>  <Number of Protein Chains in Target (bigger than 1 implies a multichain complex)>
1

>  <BindingDB Target Chain Sequence>
SIATGMVGALLLLLVVALGIGLFMRRRHIVRKRTLRRLLQERELVEPLTPSGEAPNQALLRILKETEFKKIKVLGSGAFGTVYKGLWIPEGEKVKIPVAIKELREATSPKANKEILDEAYVMASVDNPHVCRLLGICLTSTVQLITQLMPFGCLLDYVREHKDNIGSQYLLNWCVQIAKGMNYLEDRRLVHRDLAARNVLVKTPQHVKITDFGLAKLLGAEEKEYHAEGGKVPIKWMALESILHRIYTHQSDVWSYGVTVWELMTFGSKPYDGIPASEISSILEKGERLPQPPICTIDVYMIMVKCWMIDADSRPKFRELIIEFSKMARDPQRYLVIQGDERMHLPSPTDSNFYRALMDEEDMDDVVDADEYLIPQQGFFSSPSTSRTPLLSSLSATSNNSTVACIDRNGLQSCPIKEDSFLQRYSSDPTGALTEDSIDDTFLPVPEYINQSVPKRPAGSVQNPVYHNQPLNPAPSRDPHYQDPHSTAVGNPEYLNTVQPTCVNSTFDSPAHWAQKGSHQISLDNPDYQQDFFPKEAKPNGI

>  <PDB ID(s) of Target Chain>
1M14,1M17,1XKK,1Z9I,2GS2,2GS6,2ITW,2ITX,2ITY,2J5E,2J5F,2J6M,2RF9,2RGP,3BEL,3GOP,3POZ,3VJO,3W2O,3W2P,3W2Q,3W2R,3W2S,3W32,3W33,4G5J,4I23,4JQ7,4JQ8,4JR3,4JRV,4LI5,4RJ4,4RJ5,4RJ6,4RJ7,4RJ8,4TKS,4WKQ,4WRG,4ZAU,5C8K,5C8M,5C8N,5CAL,5CAN,5CAO,5CAP,5CAQ,5CAS,5CAU,5CAV,5EDP,5EDQ,5EDR,5EM5,5EM6,5EM7,5EM8,5GNK,5HCX,5HCY,5HCZ,5HIB,5HIC,5UGB,5Y25,6D8E,6JZ0,6S89,6S8A,6VH4,6VHN,6VHP,7AEI,7AEM,7B85,7OXB,7SI1,7UKV,7ZYM,7ZYN,7ZYP,8A27,8A2A,8HY7

>  <UniProt (SwissProt) Recommended Name of Target Chain>
Epidermal growth factor receptor

>  <UniProt (SwissProt) Entry Name of Target Chain>
EGFR_HUMAN

>  <UniProt (SwissProt) Primary ID of Target Chain>
P00533

>  <UniProt (SwissProt) Secondary ID(s) of Target Chain>
O00688 O00732 P06268 Q14225 Q68GS5 Q92795 Q9BZS2 Q9GZX1 Q9H2C9 Q9H3C9 Q9UMD7 Q9UMD8 Q9UMG5

>  <UniProt (SwissProt) Alternative ID(s) of Target Chain>


>  <UniProt (TrEMBL) Submitted Name of Target Chain>


>  <UniProt (TrEMBL) Entry Name of Target Chain>


>  <UniProt (TrEMBL) Primary ID of Target Chain>


>  <UniProt (TrEMBL) Secondary ID(s) of Target Chain>


>  <UniProt (TrEMBL) Alternative ID(s) of Target Chain>


$$$$
Untitled Document-1
 OpenBabel07052409033D

 27 28  0  0  0  0  0  0  0  0999 V2000
   -1.4054   -0.5980   -0.0873 C   0  0  0  0  0  0  0  0  0  0  0  0
   -2.8067   -0.1278   -0.1406 C   0  0  0  0  0  0  0  0  0  0  0  0
   -3.2070    1.0774    0.4761 C   0  0  0  0  0  0  0  0  0  0  0  0
   -4.5438    1.4950    0.3881 C   0  0  0  0  0  0  0  0  0  0  0  0
   -5.4843    0.7136   -0.2864 C   0  0  0  0  0  0  0  0  0  0  0  0
   -5.0986   -0.4922   -0.8736 C   0  0  0  0  0  0  0  0  0  0  0  0
   -3.7688   -0.9144   -0.7980 C   0  0  0  0  0  0  0  0  0  0  0  0
   -1.1782   -1.8185    0.1354 O   0  0  0  0  0  0  0  0  0  0  0  0
   -0.3142    0.3159   -0.2950 N   0  0  0  0  0  0  0  0  0  0  0  0
   -2.2910    1.8428    1.1977 O   0  0  0  0  0  0  0  0  0  0  0  0
    1.0681   -0.0717   -0.2290 C   0  0  0  0  0  0  0  0  0  0  0  0
    2.0010    0.7416    0.4452 C   0  0  0  0  0  0  0  0  0  0  0  0
    3.3519    0.3752    0.4815 C   0  0  0  0  0  0  0  0  0  0  0  0
    3.7838   -0.7880   -0.1596 C   0  0  0  0  0  0  0  0  0  0  0  0
    2.8683   -1.5891   -0.8445 C   0  0  0  0  0  0  0  0  0  0  0  0
    1.5179   -1.2321   -0.8850 C   0  0  0  0  0  0  0  0  0  0  0  0
    1.4587    2.3348    1.3621 Br  0  0  0  0  0  0  0  0  0  0  0  0
   -4.8334    2.3844    0.8242 H   0  0  0  0  0  0  0  0  0  0  0  0
   -6.4651    1.0280   -0.3507 H   0  0  0  0  0  0  0  0  0  0  0  0
   -5.7965   -1.0728   -1.3643 H   0  0  0  0  0  0  0  0  0  0  0  0
   -3.4908   -1.8104   -1.2280 H   0  0  0  0  0  0  0  0  0  0  0  0
   -0.5255    1.2569   -0.4929 H   0  0  0  0  0  0  0  0  0  0  0  0
   -1.3972    1.5685    1.2596 H   0  0  0  0  0  0  0  0  0  0  0  0
    4.0314    0.9673    0.9842 H   0  0  0  0  0  0  0  0  0  0  0  0
    4.7800   -1.0554   -0.1270 H   0  0  0  0  0  0  0  0  0  0  0  0
    3.1893   -2.4461   -1.3215 H   0  0  0  0  0  0  0  0  0  0  0  0
    0.8464   -1.8233   -1.3993 H   0  0  0  0  0  0  0  0  0  0  0  0
  1  2  1  0  0  0  0
  1  8  2  0  0  0  0
  1  9  1  0  0  0  0
  2  3  2  0  0  0  0
  2  7  1  0  0  0  0
  3  4  1  0  0  0  0
  3 10  1  0  0  0  0
  4  5  2  0  0  0  0
  4 18  1  0  0  0  0
  5  6  1  0  0  0  0
  5 19  1  0  0  0  0
  6  7  2  0  0  0  0
  6 20  1  0  0  0  0
  7 21  1  0  0  0  0
  9 11  1  0  0  0  0
  9 22  1  0  0  0  0
 10 23  1  0  0  0  0
 11 12  2  0  0  0  0
 11 16  1  0  0  0  0
 12 13  1  0  0  0  0
 12 17  1  0  0  0  0
 13 14  2  0  0  0  0
 13 24  1  0  0  0  0
 14 15  1  0  0  0  0
 14 25  1  0  0  0  0
 15 16  2  0  0  0  0
 15 26  1  0  0  0  0
 16 27  1  0  0  0  0
M  END
>  <From>
www.bindingDB.org

>  <BindingDB Reactant_set_id>
408347

>  <Ligand InChI>
InChI=1S/C13H10BrNO2/c14-10-6-2-3-7-11(10)15-13(17)9-5-1-4-8-12(9)16/h1-8,16H,(H,15,17)

>  <Ligand InChI Key>
UUVHVGDXYGUCJM-UHFFFAOYSA-N

>  <BindingDB MonomerID>
234303

>  <BindingDB Ligand Name>
N-(2-bromophenyl)-2-hydroxybenzamide (4)

>  <Target Name>
Epidermal growth factor receptor [645-1186]

>  <Target Source Organism According to Curator or DataSource>


>  <Ki (nM)>


>  <IC50 (nM)>
21920

>  <Kd (nM)>


>  <EC50 (nM)>


>  <kon (M-1-s-1)>


>  <koff (s-1)>


>  <pH>
7.4

>  <Temp C>
25.00

>  <Curation/DataSource>
Curated from the literature by BindingDB

>  <Article DOI>
10.3109/14756361003671060

>  <BindingDB Entry DOI>
10.7270/Q2XW4HPN

>  <PMID>
20583855

>  <PubChem AID>
aid1802974

>  <Patent Number>


>  <Authors>
Zhu, ZW; Shi, L; Ruan, XM; Yang, Y; Li, HQ; Xu, SP; Zhu, HL

>  <Institution>
Nanjing University

>  <Link to Ligand in BindingDB>
http://www.bindingdb.org/bind/chemsearch/marvin/MolStructure.jsp?monomerid=234303

>  <Link to Ligand-Target Pair in BindingDB>
http://www.bindingdb.org/jsp/dbsearch/PrimarySearch_ki.jsp?energyterm=kJ/mole&tag=r21&monomerid=234303&enzyme=Epidermal+growth+factor+receptor+%5B645-1186%5D&column=ki&startPg=0&Increment=50&submit=Search

>  <Ligand HET ID in PDB>


>  <PDB ID(s) for Ligand-Target Complex>


>  <PubChem CID of Ligand>
2412582

>  <PubChem SID of Ligand>
340094292

>  <ChEBI ID of Ligand>


>  <ChEMBL ID of Ligand>


>  <DrugBank ID of Ligand>


>  <IUPHAR_GRAC ID of Ligand>


>  <KEGG ID of Ligand>


>  <ZINC ID of Ligand>


>  <Number of Protein Chains in Target (bigger than 1 implies a multichain complex)>
1

>  <BindingDB Target Chain Sequence>
SIATGMVGALLLLLVVALGIGLFMRRRHIVRKRTLRRLLQERELVEPLTPSGEAPNQALLRILKETEFKKIKVLGSGAFGTVYKGLWIPEGEKVKIPVAIKELREATSPKANKEILDEAYVMASVDNPHVCRLLGICLTSTVQLITQLMPFGCLLDYVREHKDNIGSQYLLNWCVQIAKGMNYLEDRRLVHRDLAARNVLVKTPQHVKITDFGLAKLLGAEEKEYHAEGGKVPIKWMALESILHRIYTHQSDVWSYGVTVWELMTFGSKPYDGIPASEISSILEKGERLPQPPICTIDVYMIMVKCWMIDADSRPKFRELIIEFSKMARDPQRYLVIQGDERMHLPSPTDSNFYRALMDEEDMDDVVDADEYLIPQQGFFSSPSTSRTPLLSSLSATSNNSTVACIDRNGLQSCPIKEDSFLQRYSSDPTGALTEDSIDDTFLPVPEYINQSVPKRPAGSVQNPVYHNQPLNPAPSRDPHYQDPHSTAVGNPEYLNTVQPTCVNSTFDSPAHWAQKGSHQISLDNPDYQQDFFPKEAKPNGI

>  <PDB ID(s) of Target Chain>
1M14,1M17,1XKK,1Z9I,2GS2,2GS6,2ITW,2ITX,2ITY,2J5E,2J5F,2J6M,2RF9,2RGP,3BEL,3GOP,3POZ,3VJO,3W2O,3W2P,3W2Q,3W2R,3W2S,3W32,3W33,4G5J,4I23,4JQ7,4JQ8,4JR3,4JRV,4LI5,4RJ4,4RJ5,4RJ6,4RJ7,4RJ8,4TKS,4WKQ,4WRG,4ZAU,5C8K,5C8M,5C8N,5CAL,5CAN,5CAO,5CAP,5CAQ,5CAS,5CAU,5CAV,5EDP,5EDQ,5EDR,5EM5,5EM6,5EM7,5EM8,5GNK,5HCX,5HCY,5HCZ,5HIB,5HIC,5UGB,5Y25,6D8E,6JZ0,6S89,6S8A,6VH4,6VHN,6VHP,7AEI,7AEM,7B85,7OXB,7SI1,7UKV,7ZYM,7ZYN,7ZYP,8A27,8A2A,8HY7

>  <UniProt (SwissProt) Recommended Name of Target Chain>
Epidermal growth factor receptor

>  <UniProt (SwissProt) Entry Name of Target Chain>
EGFR_HUMAN

>  <UniProt (SwissProt) Primary ID of Target Chain>
P00533

>  <UniProt (SwissProt) Secondary ID(s) of Target Chain>
O00688 O00732 P06268 Q14225 Q68GS5 Q92795 Q9BZS2 Q9GZX1 Q9H2C9 Q9H3C9 Q9UMD7 Q9UMD8 Q9UMG5

>  <UniProt (SwissProt) Alternative ID(s) of Target Chain>


>  <UniProt (TrEMBL) Submitted Name of Target Chain>


>  <UniProt (TrEMBL) Entry Name of Target Chain>


>  <UniProt (TrEMBL) Primary ID of Target Chain>


>  <UniProt (TrEMBL) Secondary ID(s) of Target Chain>


>  <UniProt (TrEMBL) Alternative ID(s) of Target Chain>


$$$$
Untitled Document-1
 OpenBabel07052409033D

 30 31  0  0  0  0  0  0  0  0999 V2000
   -0.3618    0.0466    0.4964 C   0  0  0  0  0  0  0  0  0  0  0  0
    1.0666   -0.1950    0.2027 C   0  0  0  0  0  0  0  0  0  0  0  0
    2.0606    0.7745    0.4777 C   0  0  0  0  0  0  0  0  0  0  0  0
    3.4080    0.4729    0.2447 C   0  0  0  0  0  0  0  0  0  0  0  0
    3.7829   -0.7662   -0.2926 C   0  0  0  0  0  0  0  0  0  0  0  0
    2.7981   -1.7236   -0.5657 C   0  0  0  0  0  0  0  0  0  0  0  0
    1.4525   -1.4389   -0.3249 C   0  0  0  0  0  0  0  0  0  0  0  0
   -0.6922    0.5139    1.6202 O   0  0  0  0  0  0  0  0  0  0  0  0
   -1.3703   -0.3080   -0.4650 N   0  0  0  0  0  0  0  0  0  0  0  0
    5.2318   -1.0894   -0.5084 C   0  0  0  0  0  0  0  0  0  0  0  0
    1.7467    2.0487    0.9559 O   0  0  0  0  0  0  0  0  0  0  0  0
   -2.7692   -0.0288   -0.2855 C   0  0  0  0  0  0  0  0  0  0  0  0
   -3.7384   -0.9808   -0.6624 C   0  0  0  0  0  0  0  0  0  0  0  0
   -5.1000   -0.6908   -0.5120 C   0  0  0  0  0  0  0  0  0  0  0  0
   -5.5054    0.5440   -0.0009 C   0  0  0  0  0  0  0  0  0  0  0  0
   -4.5519    1.4978    0.3593 C   0  0  0  0  0  0  0  0  0  0  0  0
   -3.1907    1.2172    0.2140 C   0  0  0  0  0  0  0  0  0  0  0  0
   -3.2402   -2.7018   -1.3434 Br  0  0  0  0  0  0  0  0  0  0  0  0
    4.1335    1.1711    0.4712 H   0  0  0  0  0  0  0  0  0  0  0  0
    3.0681   -2.6439   -0.9467 H   0  0  0  0  0  0  0  0  0  0  0  0
    0.7342   -2.1491   -0.5365 H   0  0  0  0  0  0  0  0  0  0  0  0
   -1.0882   -0.7660   -1.2895 H   0  0  0  0  0  0  0  0  0  0  0  0
    5.8292   -0.2410   -0.2473 H   0  0  0  0  0  0  0  0  0  0  0  0
    5.3928   -1.3360   -1.5371 H   0  0  0  0  0  0  0  0  0  0  0  0
    5.5068   -1.9217    0.1052 H   0  0  0  0  0  0  0  0  0  0  0  0
    0.8540    2.2802    1.1214 H   0  0  0  0  0  0  0  0  0  0  0  0
   -5.8073   -1.3929   -0.7801 H   0  0  0  0  0  0  0  0  0  0  0  0
   -6.5102    0.7514    0.1105 H   0  0  0  0  0  0  0  0  0  0  0  0
   -4.8527    2.4114    0.7334 H   0  0  0  0  0  0  0  0  0  0  0  0
   -2.4900    1.9285    0.4748 H   0  0  0  0  0  0  0  0  0  0  0  0
  1  2  1  0  0  0  0
  1  8  2  0  0  0  0
  1  9  1  0  0  0  0
  2  3  2  0  0  0  0
  2  7  1  0  0  0  0
  3  4  1  0  0  0  0
  3 11  1  0  0  0  0
  4  5  2  0  0  0  0
  4 19  1  0  0  0  0
  5  6  1  0  0  0  0
  5 10  1  0  0  0  0
  6  7  2  0  0  0  0
  6 20  1  0  0  0  0
  7 21  1  0  0  0  0
  9 12  1  0  0  0  0
  9 22  1  0  0  0  0
 10 23  1  0  0  0  0
 10 24  1  0  0  0  0
 10 25  1  0  0  0  0
 11 26  1  0  0  0  0
 12 13  2  0  0  0  0
 12 17  1  0  0  0  0
 13 14  1  0  0  0  0
 13 18  1  0  0  0  0
 14 15  2  0  0  0  0
 14 27  1  0  0  0  0
 15 16  1  0  0  0  0
 15 28  1  0  0  0  0
 16 17  2  0  0  0  0
 16 29  1  0  0  0  0
 17 30  1  0  0  0  0
M  END
>  <From>
www.bindingDB.org

>  <BindingDB Reactant_set_id>
408357

>  <Ligand InChI>
InChI=1S/C14H12BrNO2/c1-9-6-7-10(13(17)8-9)14(18)16-12-5-3-2-4-11(12)15/h2-8,17H,1H3,(H,16,18)

>  <Ligand InChI Key>
ZRWNLKAWOORDBK-UHFFFAOYSA-N

>  <BindingDB MonomerID>
234312

>  <BindingDB Ligand Name>
N-(2-bromophenyl)-2-hydroxy-4-methylbenzamide (14)

>  <Target Name>
Epidermal growth factor receptor [645-1186]

>  <Target Source Organism According to Curator or DataSource>


>  <Ki (nM)>


>  <IC50 (nM)>
22190

>  <Kd (nM)>


>  <EC50 (nM)>


>  <kon (M-1-s-1)>


>  <koff (s-1)>


>  <pH>
7.4

>  <Temp C>
25.00

>  <Curation/DataSource>
Curated from the literature by BindingDB

>  <Article DOI>
10.3109/14756361003671060

>  <BindingDB Entry DOI>
10.7270/Q2XW4HPN

>  <PMID>
20583855

>  <PubChem AID>
aid1802974

>  <Patent Number>


>  <Authors>
Zhu, ZW; Shi, L; Ruan, XM; Yang, Y; Li, HQ; Xu, SP; Zhu, HL

>  <Institution>
Nanjing University

>  <Link to Ligand in BindingDB>
http://www.bindingdb.org/bind/chemsearch/marvin/MolStructure.jsp?monomerid=234312

>  <Link to Ligand-Target Pair in BindingDB>
http://www.bindingdb.org/jsp/dbsearch/PrimarySearch_ki.jsp?energyterm=kJ/mole&tag=r21&monomerid=234312&enzyme=Epidermal+growth+factor+receptor+%5B645-1186%5D&column=ki&startPg=0&Increment=50&submit=Search

>  <Ligand HET ID in PDB>


>  <PDB ID(s) for Ligand-Target Complex>


>  <PubChem CID of Ligand>
24694277

>  <PubChem SID of Ligand>
340094301

>  <ChEBI ID of Ligand>


>  <ChEMBL ID of Ligand>


>  <DrugBank ID of Ligand>


>  <IUPHAR_GRAC ID of Ligand>


>  <KEGG ID of Ligand>


>  <ZINC ID of Ligand>


>  <Number of Protein Chains in Target (bigger than 1 implies a multichain complex)>
1

>  <BindingDB Target Chain Sequence>
SIATGMVGALLLLLVVALGIGLFMRRRHIVRKRTLRRLLQERELVEPLTPSGEAPNQALLRILKETEFKKIKVLGSGAFGTVYKGLWIPEGEKVKIPVAIKELREATSPKANKEILDEAYVMASVDNPHVCRLLGICLTSTVQLITQLMPFGCLLDYVREHKDNIGSQYLLNWCVQIAKGMNYLEDRRLVHRDLAARNVLVKTPQHVKITDFGLAKLLGAEEKEYHAEGGKVPIKWMALESILHRIYTHQSDVWSYGVTVWELMTFGSKPYDGIPASEISSILEKGERLPQPPICTIDVYMIMVKCWMIDADSRPKFRELIIEFSKMARDPQRYLVIQGDERMHLPSPTDSNFYRALMDEEDMDDVVDADEYLIPQQGFFSSPSTSRTPLLSSLSATSNNSTVACIDRNGLQSCPIKEDSFLQRYSSDPTGALTEDSIDDTFLPVPEYINQSVPKRPAGSVQNPVYHNQPLNPAPSRDPHYQDPHSTAVGNPEYLNTVQPTCVNSTFDSPAHWAQKGSHQISLDNPDYQQDFFPKEAKPNGI

>  <PDB ID(s) of Target Chain>
1M14,1M17,1XKK,1Z9I,2GS2,2GS6,2ITW,2ITX,2ITY,2J5E,2J5F,2J6M,2RF9,2RGP,3BEL,3GOP,3POZ,3VJO,3W2O,3W2P,3W2Q,3W2R,3W2S,3W32,3W33,4G5J,4I23,4JQ7,4JQ8,4JR3,4JRV,4LI5,4RJ4,4RJ5,4RJ6,4RJ7,4RJ8,4TKS,4WKQ,4WRG,4ZAU,5C8K,5C8M,5C8N,5CAL,5CAN,5CAO,5CAP,5CAQ,5CAS,5CAU,5CAV,5EDP,5EDQ,5EDR,5EM5,5EM6,5EM7,5EM8,5GNK,5HCX,5HCY,5HCZ,5HIB,5HIC,5UGB,5Y25,6D8E,6JZ0,6S89,6S8A,6VH4,6VHN,6VHP,7AEI,7AEM,7B85,7OXB,7SI1,7UKV,7ZYM,7ZYN,7ZYP,8A27,8A2A,8HY7

>  <UniProt (SwissProt) Recommended Name of Target Chain>
Epidermal growth factor receptor

>  <UniProt (SwissProt) Entry Name of Target Chain>
EGFR_HUMAN

>  <UniProt (SwissProt) Primary ID of Target Chain>
P00533

>  <UniProt (SwissProt) Secondary ID(s) of Target Chain>
O00688 O00732 P06268 Q14225 Q68GS5 Q92795 Q9BZS2 Q9GZX1 Q9H2C9 Q9H3C9 Q9UMD7 Q9UMD8 Q9UMG5

>  <UniProt (SwissProt) Alternative ID(s) of Target Chain>


>  <UniProt (TrEMBL) Submitted Name of Target Chain>


>  <UniProt (TrEMBL) Entry Name of Target Chain>


>  <UniProt (TrEMBL) Primary ID of Target Chain>


>  <UniProt (TrEMBL) Secondary ID(s) of Target Chain>


>  <UniProt (TrEMBL) Alternative ID(s) of Target Chain>


$$$$

 OpenBabel07052409033D

 31 32  0  0  0  0  0  0  0  0999 V2000
   -5.5172    0.4590    0.1866 C   0  0  0  0  0  0  0  0  0  0  0  0
   -4.5704    1.4424    0.4901 C   0  0  0  0  0  0  0  0  0  0  0  0
   -3.2047    1.2144    0.2170 C   0  0  0  0  0  0  0  0  0  0  0  0
   -2.8016   -0.0198   -0.3386 C   0  0  0  0  0  0  0  0  0  0  0  0
   -3.7708   -0.9850   -0.6561 C   0  0  0  0  0  0  0  0  0  0  0  0
   -5.1207   -0.7480   -0.3906 C   0  0  0  0  0  0  0  0  0  0  0  0
   -2.2488    2.2038    0.4611 O   0  0  0  0  0  0  0  0  0  0  0  0
   -1.3803   -0.3128   -0.6230 C   0  0  0  0  0  0  0  0  0  0  0  0
   -1.0746   -0.8294   -1.7320 O   0  0  0  0  0  0  0  0  0  0  0  0
   -0.3607   -0.0204    0.3496 N   0  0  0  0  0  0  0  0  0  0  0  0
    1.0367   -0.2983    0.1595 C   0  0  0  0  0  0  0  0  0  0  0  0
    1.4733   -1.4864   -0.4519 C   0  0  0  0  0  0  0  0  0  0  0  0
    2.8396   -1.7444   -0.6011 C   0  0  0  0  0  0  0  0  0  0  0  0
    3.7924   -0.8233   -0.1265 C   0  0  0  0  0  0  0  0  0  0  0  0
    3.3543    0.3471    0.5029 C   0  0  0  0  0  0  0  0  0  0  0  0
    1.9888    0.6043    0.6533 C   0  0  0  0  0  0  0  0  0  0  0  0
   -6.4248   -2.0786   -0.8115 Br  0  0  0  0  0  0  0  0  0  0  0  0
   -5.1930    3.0830    1.2613 Br  0  0  0  0  0  0  0  0  0  0  0  0
    5.1732   -1.0349   -0.2547 O   0  0  0  0  0  0  0  0  0  0  0  0
    5.7573   -2.1782   -0.8705 C   0  0  0  0  0  0  0  0  0  0  0  0
   -6.5148    0.6269    0.3907 H   0  0  0  0  0  0  0  0  0  0  0  0
   -3.4830   -1.8765   -1.0891 H   0  0  0  0  0  0  0  0  0  0  0  0
   -2.5084    3.0253    0.8295 H   0  0  0  0  0  0  0  0  0  0  0  0
   -0.6375    0.3958    1.1978 H   0  0  0  0  0  0  0  0  0  0  0  0
    0.7815   -2.1722   -0.7926 H   0  0  0  0  0  0  0  0  0  0  0  0
    3.1508   -2.6141   -1.0613 H   0  0  0  0  0  0  0  0  0  0  0  0
    4.0452    1.0260    0.8590 H   0  0  0  0  0  0  0  0  0  0  0  0
    1.6792    1.4649    1.1313 H   0  0  0  0  0  0  0  0  0  0  0  0
    6.8236   -2.0951   -0.8381 H   0  0  0  0  0  0  0  0  0  0  0  0
    5.4350   -2.2385   -1.8890 H   0  0  0  0  0  0  0  0  0  0  0  0
    5.4522   -3.0602   -0.3471 H   0  0  0  0  0  0  0  0  0  0  0  0
  1  2  1  0  0  0  0
  1 21  1  0  0  0  0
  2  3  2  0  0  0  0
  2 18  1  0  0  0  0
  3  7  1  0  0  0  0
  3  4  1  0  0  0  0
  4  8  1  0  0  0  0
  4  5  2  0  0  0  0
  5  6  1  0  0  0  0
  5 22  1  0  0  0  0
  6  1  2  0  0  0  0
  6 17  1  0  0  0  0
  7 23  1  0  0  0  0
  8 10  1  0  0  0  0
  8  9  2  0  0  0  0
 10 11  1  0  0  0  0
 10 24  1  0  0  0  0
 11 12  2  0  0  0  0
 12 13  1  0  0  0  0
 12 25  1  0  0  0  0
 13 14  2  0  0  0  0
 13 26  1  0  0  0  0
 14 15  1  0  0  0  0
 14 19  1  0  0  0  0
 15 16  2  0  0  0  0
 15 27  1  0  0  0  0
 16 11  1  0  0  0  0
 16 28  1  0  0  0  0
 19 20  1  0  0  0  0
 20 29  1  0  0  0  0
 20 30  1  0  0  0  0
 20 31  1  0  0  0  0
M  END
>  <From>
www.bindingDB.org

>  <BindingDB Reactant_set_id>
408375

>  <Ligand InChI>
InChI=1S/C14H11Br2NO3/c1-20-10-4-2-9(3-5-10)17-14(19)11-6-8(15)7-12(16)13(11)18/h2-7,18H,1H3,(H,17,19)

>  <Ligand InChI Key>
YFQYZLCHJYREBN-UHFFFAOYSA-N

>  <BindingDB MonomerID>
50347555

>  <BindingDB Ligand Name>
3,5-Dibromo-2-hydroxy-N-(4-methoxyphenyl)benzamide (32)::CHEMBL1801802

>  <Target Name>
Epidermal growth factor receptor [645-1186]

>  <Target Source Organism According to Curator or DataSource>


>  <Ki (nM)>


>  <IC50 (nM)>
22390

>  <Kd (nM)>


>  <EC50 (nM)>


>  <kon (M-1-s-1)>


>  <koff (s-1)>


>  <pH>
7.4

>  <Temp C>
25.00

>  <Curation/DataSource>
Curated from the literature by BindingDB

>  <Article DOI>
10.3109/14756361003671060

>  <BindingDB Entry DOI>
10.7270/Q2XW4HPN

>  <PMID>
20583855

>  <PubChem AID>
aid1802974

>  <Patent Number>


>  <Authors>
Zhu, ZW; Shi, L; Ruan, XM; Yang, Y; Li, HQ; Xu, SP; Zhu, HL

>  <Institution>
Nanjing University

>  <Link to Ligand in BindingDB>
http://www.bindingdb.org/bind/chemsearch/marvin/MolStructure.jsp?monomerid=50347555

>  <Link to Ligand-Target Pair in BindingDB>
http://www.bindingdb.org/jsp/dbsearch/PrimarySearch_ki.jsp?energyterm=kJ/mole&tag=r21&monomerid=50347555&enzyme=Epidermal+growth+factor+receptor+%5B645-1186%5D&column=ki&startPg=0&Increment=50&submit=Search

>  <Ligand HET ID in PDB>


>  <PDB ID(s) for Ligand-Target Complex>


>  <PubChem CID of Ligand>
3401015

>  <PubChem SID of Ligand>
136354241

>  <ChEBI ID of Ligand>


>  <ChEMBL ID of Ligand>
CHEMBL1801802

>  <DrugBank ID of Ligand>


>  <IUPHAR_GRAC ID of Ligand>


>  <KEGG ID of Ligand>


>  <ZINC ID of Ligand>
ZINC03156573

>  <Number of Protein Chains in Target (bigger than 1 implies a multichain complex)>
1

>  <BindingDB Target Chain Sequence>
SIATGMVGALLLLLVVALGIGLFMRRRHIVRKRTLRRLLQERELVEPLTPSGEAPNQALLRILKETEFKKIKVLGSGAFGTVYKGLWIPEGEKVKIPVAIKELREATSPKANKEILDEAYVMASVDNPHVCRLLGICLTSTVQLITQLMPFGCLLDYVREHKDNIGSQYLLNWCVQIAKGMNYLEDRRLVHRDLAARNVLVKTPQHVKITDFGLAKLLGAEEKEYHAEGGKVPIKWMALESILHRIYTHQSDVWSYGVTVWELMTFGSKPYDGIPASEISSILEKGERLPQPPICTIDVYMIMVKCWMIDADSRPKFRELIIEFSKMARDPQRYLVIQGDERMHLPSPTDSNFYRALMDEEDMDDVVDADEYLIPQQGFFSSPSTSRTPLLSSLSATSNNSTVACIDRNGLQSCPIKEDSFLQRYSSDPTGALTEDSIDDTFLPVPEYINQSVPKRPAGSVQNPVYHNQPLNPAPSRDPHYQDPHSTAVGNPEYLNTVQPTCVNSTFDSPAHWAQKGSHQISLDNPDYQQDFFPKEAKPNGI

>  <PDB ID(s) of Target Chain>
1M14,1M17,1XKK,1Z9I,2GS2,2GS6,2ITW,2ITX,2ITY,2J5E,2J5F,2J6M,2RF9,2RGP,3BEL,3GOP,3POZ,3VJO,3W2O,3W2P,3W2Q,3W2R,3W2S,3W32,3W33,4G5J,4I23,4JQ7,4JQ8,4JR3,4JRV,4LI5,4RJ4,4RJ5,4RJ6,4RJ7,4RJ8,4TKS,4WKQ,4WRG,4ZAU,5C8K,5C8M,5C8N,5CAL,5CAN,5CAO,5CAP,5CAQ,5CAS,5CAU,5CAV,5EDP,5EDQ,5EDR,5EM5,5EM6,5EM7,5EM8,5GNK,5HCX,5HCY,5HCZ,5HIB,5HIC,5UGB,5Y25,6D8E,6JZ0,6S89,6S8A,6VH4,6VHN,6VHP,7AEI,7AEM,7B85,7OXB,7SI1,7UKV,7ZYM,7ZYN,7ZYP,8A27,8A2A,8HY7

>  <UniProt (SwissProt) Recommended Name of Target Chain>
Epidermal growth factor receptor

>  <UniProt (SwissProt) Entry Name of Target Chain>
EGFR_HUMAN

>  <UniProt (SwissProt) Primary ID of Target Chain>
P00533

>  <UniProt (SwissProt) Secondary ID(s) of Target Chain>
O00688 O00732 P06268 Q14225 Q68GS5 Q92795 Q9BZS2 Q9GZX1 Q9H2C9 Q9H3C9 Q9UMD7 Q9UMD8 Q9UMG5

>  <UniProt (SwissProt) Alternative ID(s) of Target Chain>


>  <UniProt (TrEMBL) Submitted Name of Target Chain>


>  <UniProt (TrEMBL) Entry Name of Target Chain>


>  <UniProt (TrEMBL) Primary ID of Target Chain>


>  <UniProt (TrEMBL) Secondary ID(s) of Target Chain>


>  <UniProt (TrEMBL) Alternative ID(s) of Target Chain>


$$$$
Untitled Document-1
 OpenBabel07052409033D

 27 28  0  0  0  0  0  0  0  0999 V2000
   -1.3818   -0.4337   -0.5453 C   0  0  0  0  0  0  0  0  0  0  0  0
   -2.8032   -0.1066   -0.2788 C   0  0  0  0  0  0  0  0  0  0  0  0
   -3.8099   -1.0852   -0.4330 C   0  0  0  0  0  0  0  0  0  0  0  0
   -5.1515   -0.7535   -0.1915 C   0  0  0  0  0  0  0  0  0  0  0  0
   -5.4986    0.5403    0.2011 C   0  0  0  0  0  0  0  0  0  0  0  0
   -4.5099    1.5132    0.3503 C   0  0  0  0  0  0  0  0  0  0  0  0
   -3.1706    1.1954    0.1102 C   0  0  0  0  0  0  0  0  0  0  0  0
   -1.0988   -1.2185   -1.4912 O   0  0  0  0  0  0  0  0  0  0  0  0
   -0.3296    0.1522    0.2437 N   0  0  0  0  0  0  0  0  0  0  0  0
   -3.4774   -2.3866   -0.8104 O   0  0  0  0  0  0  0  0  0  0  0  0
    1.0605   -0.1869    0.1007 C   0  0  0  0  0  0  0  0  0  0  0  0
    2.0375    0.8146    0.2384 C   0  0  0  0  0  0  0  0  0  0  0  0
    3.3950    0.4959    0.1272 C   0  0  0  0  0  0  0  0  0  0  0  0
    3.7891   -0.8238   -0.1060 C   0  0  0  0  0  0  0  0  0  0  0  0
    2.8270   -1.8299   -0.2209 C   0  0  0  0  0  0  0  0  0  0  0  0
    1.4686   -1.5171   -0.1118 C   0  0  0  0  0  0  0  0  0  0  0  0
    1.6725    2.1020    0.4632 F   0  0  0  0  0  0  0  0  0  0  0  0
   -5.8857   -1.4699   -0.3047 H   0  0  0  0  0  0  0  0  0  0  0  0
   -6.4868    0.7772    0.3810 H   0  0  0  0  0  0  0  0  0  0  0  0
   -4.7683    2.4698    0.6387 H   0  0  0  0  0  0  0  0  0  0  0  0
   -2.4449    1.9211    0.2189 H   0  0  0  0  0  0  0  0  0  0  0  0
   -0.5760    0.8237    0.9201 H   0  0  0  0  0  0  0  0  0  0  0  0
   -2.5828   -2.6132   -0.9728 H   0  0  0  0  0  0  0  0  0  0  0  0
    4.1070    1.2375    0.2177 H   0  0  0  0  0  0  0  0  0  0  0  0
    4.7910   -1.0554   -0.1934 H   0  0  0  0  0  0  0  0  0  0  0  0
    3.1193   -2.8057   -0.3866 H   0  0  0  0  0  0  0  0  0  0  0  0
    0.7617   -2.2652   -0.1875 H   0  0  0  0  0  0  0  0  0  0  0  0
  1  2  1  0  0  0  0
  1  8  2  0  0  0  0
  1  9  1  0  0  0  0
  2  3  2  0  0  0  0
  2  7  1  0  0  0  0
  3  4  1  0  0  0  0
  3 10  1  0  0  0  0
  4  5  2  0  0  0  0
  4 18  1  0  0  0  0
  5  6  1  0  0  0  0
  5 19  1  0  0  0  0
  6  7  2  0  0  0  0
  6 20  1  0  0  0  0
  7 21  1  0  0  0  0
  9 11  1  0  0  0  0
  9 22  1  0  0  0  0
 10 23  1  0  0  0  0
 11 12  2  0  0  0  0
 11 16  1  0  0  0  0
 12 13  1  0  0  0  0
 12 17  1  0  0  0  0
 13 14  2  0  0  0  0
 13 24  1  0  0  0  0
 14 15  1  0  0  0  0
 14 25  1  0  0  0  0
 15 16  2  0  0  0  0
 15 26  1  0  0  0  0
 16 27  1  0  0  0  0
M  END
>  <From>
www.bindingDB.org

>  <BindingDB Reactant_set_id>
408345

>  <Ligand InChI>
InChI=1S/C13H10FNO2/c14-10-6-2-3-7-11(10)15-13(17)9-5-1-4-8-12(9)16/h1-8,16H,(H,15,17)

>  <Ligand InChI Key>
KRPASKLFRLGQHR-UHFFFAOYSA-N

>  <BindingDB MonomerID>
234301

>  <BindingDB Ligand Name>
N-(2-fluorophenyl)-2-hydroxybenzamide (2)

>  <Target Name>
Epidermal growth factor receptor [645-1186]

>  <Target Source Organism According to Curator or DataSource>


>  <Ki (nM)>


>  <IC50 (nM)>
24830

>  <Kd (nM)>


>  <EC50 (nM)>


>  <kon (M-1-s-1)>


>  <koff (s-1)>


>  <pH>
7.4

>  <Temp C>
25.00

>  <Curation/DataSource>
Curated from the literature by BindingDB

>  <Article DOI>
10.3109/14756361003671060

>  <BindingDB Entry DOI>
10.7270/Q2XW4HPN

>  <PMID>
20583855

>  <PubChem AID>
aid1802974

>  <Patent Number>


>  <Authors>
Zhu, ZW; Shi, L; Ruan, XM; Yang, Y; Li, HQ; Xu, SP; Zhu, HL

>  <Institution>
Nanjing University

>  <Link to Ligand in BindingDB>
http://www.bindingdb.org/bind/chemsearch/marvin/MolStructure.jsp?monomerid=234301

>  <Link to Ligand-Target Pair in BindingDB>
http://www.bindingdb.org/jsp/dbsearch/PrimarySearch_ki.jsp?energyterm=kJ/mole&tag=r21&monomerid=234301&enzyme=Epidermal+growth+factor+receptor+%5B645-1186%5D&column=ki&startPg=0&Increment=50&submit=Search

>  <Ligand HET ID in PDB>


>  <PDB ID(s) for Ligand-Target Complex>


>  <PubChem CID of Ligand>
24285067

>  <PubChem SID of Ligand>
340094290

>  <ChEBI ID of Ligand>


>  <ChEMBL ID of Ligand>


>  <DrugBank ID of Ligand>


>  <IUPHAR_GRAC ID of Ligand>


>  <KEGG ID of Ligand>


>  <ZINC ID of Ligand>


>  <Number of Protein Chains in Target (bigger than 1 implies a multichain complex)>
1

>  <BindingDB Target Chain Sequence>
SIATGMVGALLLLLVVALGIGLFMRRRHIVRKRTLRRLLQERELVEPLTPSGEAPNQALLRILKETEFKKIKVLGSGAFGTVYKGLWIPEGEKVKIPVAIKELREATSPKANKEILDEAYVMASVDNPHVCRLLGICLTSTVQLITQLMPFGCLLDYVREHKDNIGSQYLLNWCVQIAKGMNYLEDRRLVHRDLAARNVLVKTPQHVKITDFGLAKLLGAEEKEYHAEGGKVPIKWMALESILHRIYTHQSDVWSYGVTVWELMTFGSKPYDGIPASEISSILEKGERLPQPPICTIDVYMIMVKCWMIDADSRPKFRELIIEFSKMARDPQRYLVIQGDERMHLPSPTDSNFYRALMDEEDMDDVVDADEYLIPQQGFFSSPSTSRTPLLSSLSATSNNSTVACIDRNGLQSCPIKEDSFLQRYSSDPTGALTEDSIDDTFLPVPEYINQSVPKRPAGSVQNPVYHNQPLNPAPSRDPHYQDPHSTAVGNPEYLNTVQPTCVNSTFDSPAHWAQKGSHQISLDNPDYQQDFFPKEAKPNGI

>  <PDB ID(s) of Target Chain>
1M14,1M17,1XKK,1Z9I,2GS2,2GS6,2ITW,2ITX,2ITY,2J5E,2J5F,2J6M,2RF9,2RGP,3BEL,3GOP,3POZ,3VJO,3W2O,3W2P,3W2Q,3W2R,3W2S,3W32,3W33,4G5J,4I23,4JQ7,4JQ8,4JR3,4JRV,4LI5,4RJ4,4RJ5,4RJ6,4RJ7,4RJ8,4TKS,4WKQ,4WRG,4ZAU,5C8K,5C8M,5C8N,5CAL,5CAN,5CAO,5CAP,5CAQ,5CAS,5CAU,5CAV,5EDP,5EDQ,5EDR,5EM5,5EM6,5EM7,5EM8,5GNK,5HCX,5HCY,5HCZ,5HIB,5HIC,5UGB,5Y25,6D8E,6JZ0,6S89,6S8A,6VH4,6VHN,6VHP,7AEI,7AEM,7B85,7OXB,7SI1,7UKV,7ZYM,7ZYN,7ZYP,8A27,8A2A,8HY7

>  <UniProt (SwissProt) Recommended Name of Target Chain>
Epidermal growth factor receptor

>  <UniProt (SwissProt) Entry Name of Target Chain>
EGFR_HUMAN

>  <UniProt (SwissProt) Primary ID of Target Chain>
P00533

>  <UniProt (SwissProt) Secondary ID(s) of Target Chain>
O00688 O00732 P06268 Q14225 Q68GS5 Q92795 Q9BZS2 Q9GZX1 Q9H2C9 Q9H3C9 Q9UMD7 Q9UMD8 Q9UMG5

>  <UniProt (SwissProt) Alternative ID(s) of Target Chain>


>  <UniProt (TrEMBL) Submitted Name of Target Chain>


>  <UniProt (TrEMBL) Entry Name of Target Chain>


>  <UniProt (TrEMBL) Primary ID of Target Chain>


>  <UniProt (TrEMBL) Secondary ID(s) of Target Chain>


>  <UniProt (TrEMBL) Alternative ID(s) of Target Chain>


$$$$
478805
 OpenBabel07052409033D

 30 31  0  0  0  0  0  0  0  0999 V2000
   -3.4267   -1.9794   -1.6804 O   0  0  0  0  0  0  0  0  0  0  0  0
   -1.1824   -1.8574   -0.1176 O   0  0  0  0  0  0  0  0  0  0  0  0
   -0.3102    0.3154   -0.1093 N   0  0  0  0  0  0  0  0  0  0  0  0
    1.0739   -0.0709   -0.1575 C   0  0  0  0  0  0  0  0  0  0  0  0
   -2.8089   -0.1383   -0.2095 C   0  0  0  0  0  0  0  0  0  0  0  0
    3.8084   -0.7378   -0.2763 C   0  0  0  0  0  0  0  0  0  0  0  0
    2.0151    0.6522    0.5898 C   0  0  0  0  0  0  0  0  0  0  0  0
    1.5156   -1.1199   -0.9835 C   0  0  0  0  0  0  0  0  0  0  0  0
   -1.4067   -0.6168   -0.1522 C   0  0  0  0  0  0  0  0  0  0  0  0
    3.3704    0.3128    0.5431 C   0  0  0  0  0  0  0  0  0  0  0  0
    2.8713   -1.4586   -1.0311 C   0  0  0  0  0  0  0  0  0  0  0  0
   -3.7800   -0.8395   -0.9577 C   0  0  0  0  0  0  0  0  0  0  0  0
   -3.1958    1.0125    0.5031 C   0  0  0  0  0  0  0  0  0  0  0  0
    5.2570   -1.1267   -0.2979 C   0  0  0  0  0  0  0  0  0  0  0  0
   -5.1057   -0.3810   -0.9883 C   0  0  0  0  0  0  0  0  0  0  0  0
   -4.5186    1.4608    0.4629 C   0  0  0  0  0  0  0  0  0  0  0  0
   -5.4716    0.7662   -0.2824 C   0  0  0  0  0  0  0  0  0  0  0  0
   -2.5427   -2.2897   -1.6633 H   0  0  0  0  0  0  0  0  0  0  0  0
   -0.5208    1.2748   -0.0430 H   0  0  0  0  0  0  0  0  0  0  0  0
    1.7047    1.4408    1.1786 H   0  0  0  0  0  0  0  0  0  0  0  0
    0.8355   -1.6424   -1.5575 H   0  0  0  0  0  0  0  0  0  0  0  0
    4.0515    0.8375    1.1139 H   0  0  0  0  0  0  0  0  0  0  0  0
    3.1840   -2.2428   -1.6245 H   0  0  0  0  0  0  0  0  0  0  0  0
   -2.4969    1.5291    1.0596 H   0  0  0  0  0  0  0  0  0  0  0  0
    5.8131   -0.4662    0.3341 H   0  0  0  0  0  0  0  0  0  0  0  0
    5.6293   -1.0602   -1.2989 H   0  0  0  0  0  0  0  0  0  0  0  0
    5.3620   -2.1311    0.0557 H   0  0  0  0  0  0  0  0  0  0  0  0
   -5.8140   -0.8947   -1.5356 H   0  0  0  0  0  0  0  0  0  0  0  0
   -4.7912    2.3077    0.9858 H   0  0  0  0  0  0  0  0  0  0  0  0
   -6.4475    1.1007   -0.3118 H   0  0  0  0  0  0  0  0  0  0  0  0
  1 12  1  0  0  0  0
  1 18  1  0  0  0  0
  2  9  2  0  0  0  0
  3  4  1  0  0  0  0
  3  9  1  0  0  0  0
  3 19  1  0  0  0  0
  4  7  2  0  0  0  0
  4  8  1  0  0  0  0
  5  9  1  0  0  0  0
  5 12  2  0  0  0  0
  5 13  1  0  0  0  0
  6 10  2  0  0  0  0
  6 11  1  0  0  0  0
  6 14  1  0  0  0  0
  7 10  1  0  0  0  0
  7 20  1  0  0  0  0
  8 11  2  0  0  0  0
  8 21  1  0  0  0  0
 10 22  1  0  0  0  0
 11 23  1  0  0  0  0
 12 15  1  0  0  0  0
 13 16  2  0  0  0  0
 13 24  1  0  0  0  0
 14 25  1  0  0  0  0
 14 26  1  0  0  0  0
 14 27  1  0  0  0  0
 15 17  2  0  0  0  0
 15 28  1  0  0  0  0
 16 17  1  0  0  0  0
 16 29  1  0  0  0  0
 17 30  1  0  0  0  0
M  END
>  <From>
www.bindingDB.org

>  <BindingDB Reactant_set_id>
408353

>  <Ligand InChI>
InChI=1S/C14H13NO2/c1-10-6-8-11(9-7-10)15-14(17)12-4-2-3-5-13(12)16/h2-9,16H,1H3,(H,15,17)

>  <Ligand InChI Key>
QMLRNTPTRWMCOP-UHFFFAOYSA-N

>  <BindingDB MonomerID>
49214

>  <BindingDB Ligand Name>
2-Hydroxy-N-p-tolylbenzamide (10)::2-hydroxy-N-(4-methylphenyl)benzamide::2-hydroxy-N-(p-tolyl)benzamide::MLS000053968::N-(4-methylphenyl)-2-oxidanyl-benzamide::SMR000061984::cid_478805

>  <Target Name>
Epidermal growth factor receptor [645-1186]

>  <Target Source Organism According to Curator or DataSource>


>  <Ki (nM)>


>  <IC50 (nM)>
25740

>  <Kd (nM)>


>  <EC50 (nM)>


>  <kon (M-1-s-1)>


>  <koff (s-1)>


>  <pH>
7.4

>  <Temp C>
25.00

>  <Curation/DataSource>
Curated from the literature by BindingDB

>  <Article DOI>
10.3109/14756361003671060

>  <BindingDB Entry DOI>
10.7270/Q2XW4HPN

>  <PMID>
20583855

>  <PubChem AID>
aid1802974

>  <Patent Number>


>  <Authors>
Zhu, ZW; Shi, L; Ruan, XM; Yang, Y; Li, HQ; Xu, SP; Zhu, HL

>  <Institution>
Nanjing University

>  <Link to Ligand in BindingDB>
http://www.bindingdb.org/bind/chemsearch/marvin/MolStructure.jsp?monomerid=49214

>  <Link to Ligand-Target Pair in BindingDB>
http://www.bindingdb.org/jsp/dbsearch/PrimarySearch_ki.jsp?energyterm=kJ/mole&tag=r21&monomerid=49214&enzyme=Epidermal+growth+factor+receptor+%5B645-1186%5D&column=ki&startPg=0&Increment=50&submit=Search

>  <Ligand HET ID in PDB>


>  <PDB ID(s) for Ligand-Target Complex>


>  <PubChem CID of Ligand>
478805

>  <PubChem SID of Ligand>
252629495

>  <ChEBI ID of Ligand>


>  <ChEMBL ID of Ligand>


>  <DrugBank ID of Ligand>


>  <IUPHAR_GRAC ID of Ligand>


>  <KEGG ID of Ligand>


>  <ZINC ID of Ligand>
ZINC01440600

>  <Number of Protein Chains in Target (bigger than 1 implies a multichain complex)>
1

>  <BindingDB Target Chain Sequence>
SIATGMVGALLLLLVVALGIGLFMRRRHIVRKRTLRRLLQERELVEPLTPSGEAPNQALLRILKETEFKKIKVLGSGAFGTVYKGLWIPEGEKVKIPVAIKELREATSPKANKEILDEAYVMASVDNPHVCRLLGICLTSTVQLITQLMPFGCLLDYVREHKDNIGSQYLLNWCVQIAKGMNYLEDRRLVHRDLAARNVLVKTPQHVKITDFGLAKLLGAEEKEYHAEGGKVPIKWMALESILHRIYTHQSDVWSYGVTVWELMTFGSKPYDGIPASEISSILEKGERLPQPPICTIDVYMIMVKCWMIDADSRPKFRELIIEFSKMARDPQRYLVIQGDERMHLPSPTDSNFYRALMDEEDMDDVVDADEYLIPQQGFFSSPSTSRTPLLSSLSATSNNSTVACIDRNGLQSCPIKEDSFLQRYSSDPTGALTEDSIDDTFLPVPEYINQSVPKRPAGSVQNPVYHNQPLNPAPSRDPHYQDPHSTAVGNPEYLNTVQPTCVNSTFDSPAHWAQKGSHQISLDNPDYQQDFFPKEAKPNGI

>  <PDB ID(s) of Target Chain>
1M14,1M17,1XKK,1Z9I,2GS2,2GS6,2ITW,2ITX,2ITY,2J5E,2J5F,2J6M,2RF9,2RGP,3BEL,3GOP,3POZ,3VJO,3W2O,3W2P,3W2Q,3W2R,3W2S,3W32,3W33,4G5J,4I23,4JQ7,4JQ8,4JR3,4JRV,4LI5,4RJ4,4RJ5,4RJ6,4RJ7,4RJ8,4TKS,4WKQ,4WRG,4ZAU,5C8K,5C8M,5C8N,5CAL,5CAN,5CAO,5CAP,5CAQ,5CAS,5CAU,5CAV,5EDP,5EDQ,5EDR,5EM5,5EM6,5EM7,5EM8,5GNK,5HCX,5HCY,5HCZ,5HIB,5HIC,5UGB,5Y25,6D8E,6JZ0,6S89,6S8A,6VH4,6VHN,6VHP,7AEI,7AEM,7B85,7OXB,7SI1,7UKV,7ZYM,7ZYN,7ZYP,8A27,8A2A,8HY7

>  <UniProt (SwissProt) Recommended Name of Target Chain>
Epidermal growth factor receptor

>  <UniProt (SwissProt) Entry Name of Target Chain>
EGFR_HUMAN

>  <UniProt (SwissProt) Primary ID of Target Chain>
P00533

>  <UniProt (SwissProt) Secondary ID(s) of Target Chain>
O00688 O00732 P06268 Q14225 Q68GS5 Q92795 Q9BZS2 Q9GZX1 Q9H2C9 Q9H3C9 Q9UMD7 Q9UMD8 Q9UMG5

>  <UniProt (SwissProt) Alternative ID(s) of Target Chain>


>  <UniProt (TrEMBL) Submitted Name of Target Chain>


>  <UniProt (TrEMBL) Entry Name of Target Chain>


>  <UniProt (TrEMBL) Primary ID of Target Chain>


>  <UniProt (TrEMBL) Secondary ID(s) of Target Chain>


>  <UniProt (TrEMBL) Alternative ID(s) of Target Chain>


$$$$
Untitled Document-1
 OpenBabel07052409033D

 27 28  0  0  0  0  0  0  0  0999 V2000
   -1.4378   -0.5657   -0.1755 C   0  0  0  0  0  0  0  0  0  0  0  0
   -2.8366   -0.0895   -0.2322 C   0  0  0  0  0  0  0  0  0  0  0  0
   -3.2558    1.0580    0.4765 C   0  0  0  0  0  0  0  0  0  0  0  0
   -4.5965    1.4870    0.3768 C   0  0  0  0  0  0  0  0  0  0  0  0
   -5.5062    0.7621   -0.3994 C   0  0  0  0  0  0  0  0  0  0  0  0
   -5.0977   -0.3888   -1.0745 C   0  0  0  0  0  0  0  0  0  0  0  0
   -3.7712   -0.8153   -0.9882 C   0  0  0  0  0  0  0  0  0  0  0  0
   -1.2192   -1.7950    0.0012 O   0  0  0  0  0  0  0  0  0  0  0  0
   -0.3415    0.3545   -0.3252 N   0  0  0  0  0  0  0  0  0  0  0  0
   -2.3438    1.7354    1.2899 O   0  0  0  0  0  0  0  0  0  0  0  0
    1.0427   -0.0326   -0.3078 C   0  0  0  0  0  0  0  0  0  0  0  0
    1.9838    0.8123    0.3004 C   0  0  0  0  0  0  0  0  0  0  0  0
    3.3398    0.4713    0.3104 C   0  0  0  0  0  0  0  0  0  0  0  0
    3.7700   -0.7094   -0.3024 C   0  0  0  0  0  0  0  0  0  0  0  0
    2.8433   -1.5447   -0.9335 C   0  0  0  0  0  0  0  0  0  0  0  0
    1.4863   -1.2067   -0.9440 C   0  0  0  0  0  0  0  0  0  0  0  0
    5.6229   -1.1722   -0.2916 Br  0  0  0  0  0  0  0  0  0  0  0  0
   -6.3525   -1.3771   -2.1220 Br  0  0  0  0  0  0  0  0  0  0  0  0
   -5.2363    3.0449    1.2922 Br  0  0  0  0  0  0  0  0  0  0  0  0
   -6.4852    1.0801   -0.4734 H   0  0  0  0  0  0  0  0  0  0  0  0
   -3.4752   -1.6707   -1.4839 H   0  0  0  0  0  0  0  0  0  0  0  0
   -0.5527    1.3083   -0.4471 H   0  0  0  0  0  0  0  0  0  0  0  0
   -1.4566    1.4393    1.3465 H   0  0  0  0  0  0  0  0  0  0  0  0
    1.6730    1.6911    0.7432 H   0  0  0  0  0  0  0  0  0  0  0  0
    4.0239    1.0919    0.7707 H   0  0  0  0  0  0  0  0  0  0  0  0
    3.1613   -2.4125   -1.3926 H   0  0  0  0  0  0  0  0  0  0  0  0
    0.8074   -1.8209   -1.4203 H   0  0  0  0  0  0  0  0  0  0  0  0
  1  2  1  0  0  0  0
  1  8  2  0  0  0  0
  1  9  1  0  0  0  0
  2  3  2  0  0  0  0
  2  7  1  0  0  0  0
  3  4  1  0  0  0  0
  3 10  1  0  0  0  0
  4  5  2  0  0  0  0
  4 19  1  0  0  0  0
  5  6  1  0  0  0  0
  5 20  1  0  0  0  0
  6  7  2  0  0  0  0
  6 18  1  0  0  0  0
  7 21  1  0  0  0  0
  9 11  1  0  0  0  0
  9 22  1  0  0  0  0
 10 23  1  0  0  0  0
 11 12  2  0  0  0  0
 11 16  1  0  0  0  0
 12 13  1  0  0  0  0
 12 24  1  0  0  0  0
 13 14  2  0  0  0  0
 13 25  1  0  0  0  0
 14 15  1  0  0  0  0
 14 17  1  0  0  0  0
 15 16  2  0  0  0  0
 15 26  1  0  0  0  0
 16 27  1  0  0  0  0
M  END
>  <From>
www.bindingDB.org

>  <BindingDB Reactant_set_id>
408374

>  <Ligand InChI>
InChI=1S/C13H8Br3NO2/c14-7-1-3-9(4-2-7)17-13(19)10-5-8(15)6-11(16)12(10)18/h1-6,18H,(H,17,19)

>  <Ligand InChI Key>
KVSKGMLNBAPGKH-UHFFFAOYSA-N

>  <BindingDB MonomerID>
234329

>  <BindingDB Ligand Name>
3,5-Dibromo-N-(4-bromophenyl)-2-hydroxybenzamide (31)

>  <Target Name>
Epidermal growth factor receptor [645-1186]

>  <Target Source Organism According to Curator or DataSource>


>  <Ki (nM)>


>  <IC50 (nM)>
28530

>  <Kd (nM)>


>  <EC50 (nM)>


>  <kon (M-1-s-1)>


>  <koff (s-1)>


>  <pH>
7.4

>  <Temp C>
25.00

>  <Curation/DataSource>
Curated from the literature by BindingDB

>  <Article DOI>
10.3109/14756361003671060

>  <BindingDB Entry DOI>
10.7270/Q2XW4HPN

>  <PMID>
20583855

>  <PubChem AID>
aid1802974

>  <Patent Number>


>  <Authors>
Zhu, ZW; Shi, L; Ruan, XM; Yang, Y; Li, HQ; Xu, SP; Zhu, HL

>  <Institution>
Nanjing University

>  <Link to Ligand in BindingDB>
http://www.bindingdb.org/bind/chemsearch/marvin/MolStructure.jsp?monomerid=234329

>  <Link to Ligand-Target Pair in BindingDB>
http://www.bindingdb.org/jsp/dbsearch/PrimarySearch_ki.jsp?energyterm=kJ/mole&tag=r21&monomerid=234329&enzyme=Epidermal+growth+factor+receptor+%5B645-1186%5D&column=ki&startPg=0&Increment=50&submit=Search

>  <Ligand HET ID in PDB>


>  <PDB ID(s) for Ligand-Target Complex>


>  <PubChem CID of Ligand>
14868

>  <PubChem SID of Ligand>
340094318

>  <ChEBI ID of Ligand>


>  <ChEMBL ID of Ligand>


>  <DrugBank ID of Ligand>


>  <IUPHAR_GRAC ID of Ligand>


>  <KEGG ID of Ligand>


>  <ZINC ID of Ligand>


>  <Number of Protein Chains in Target (bigger than 1 implies a multichain complex)>
1

>  <BindingDB Target Chain Sequence>
SIATGMVGALLLLLVVALGIGLFMRRRHIVRKRTLRRLLQERELVEPLTPSGEAPNQALLRILKETEFKKIKVLGSGAFGTVYKGLWIPEGEKVKIPVAIKELREATSPKANKEILDEAYVMASVDNPHVCRLLGICLTSTVQLITQLMPFGCLLDYVREHKDNIGSQYLLNWCVQIAKGMNYLEDRRLVHRDLAARNVLVKTPQHVKITDFGLAKLLGAEEKEYHAEGGKVPIKWMALESILHRIYTHQSDVWSYGVTVWELMTFGSKPYDGIPASEISSILEKGERLPQPPICTIDVYMIMVKCWMIDADSRPKFRELIIEFSKMARDPQRYLVIQGDERMHLPSPTDSNFYRALMDEEDMDDVVDADEYLIPQQGFFSSPSTSRTPLLSSLSATSNNSTVACIDRNGLQSCPIKEDSFLQRYSSDPTGALTEDSIDDTFLPVPEYINQSVPKRPAGSVQNPVYHNQPLNPAPSRDPHYQDPHSTAVGNPEYLNTVQPTCVNSTFDSPAHWAQKGSHQISLDNPDYQQDFFPKEAKPNGI

>  <PDB ID(s) of Target Chain>
1M14,1M17,1XKK,1Z9I,2GS2,2GS6,2ITW,2ITX,2ITY,2J5E,2J5F,2J6M,2RF9,2RGP,3BEL,3GOP,3POZ,3VJO,3W2O,3W2P,3W2Q,3W2R,3W2S,3W32,3W33,4G5J,4I23,4JQ7,4JQ8,4JR3,4JRV,4LI5,4RJ4,4RJ5,4RJ6,4RJ7,4RJ8,4TKS,4WKQ,4WRG,4ZAU,5C8K,5C8M,5C8N,5CAL,5CAN,5CAO,5CAP,5CAQ,5CAS,5CAU,5CAV,5EDP,5EDQ,5EDR,5EM5,5EM6,5EM7,5EM8,5GNK,5HCX,5HCY,5HCZ,5HIB,5HIC,5UGB,5Y25,6D8E,6JZ0,6S89,6S8A,6VH4,6VHN,6VHP,7AEI,7AEM,7B85,7OXB,7SI1,7UKV,7ZYM,7ZYN,7ZYP,8A27,8A2A,8HY7

>  <UniProt (SwissProt) Recommended Name of Target Chain>
Epidermal growth factor receptor

>  <UniProt (SwissProt) Entry Name of Target Chain>
EGFR_HUMAN

>  <UniProt (SwissProt) Primary ID of Target Chain>
P00533

>  <UniProt (SwissProt) Secondary ID(s) of Target Chain>
O00688 O00732 P06268 Q14225 Q68GS5 Q92795 Q9BZS2 Q9GZX1 Q9H2C9 Q9H3C9 Q9UMD7 Q9UMD8 Q9UMG5

>  <UniProt (SwissProt) Alternative ID(s) of Target Chain>


>  <UniProt (TrEMBL) Submitted Name of Target Chain>


>  <UniProt (TrEMBL) Entry Name of Target Chain>


>  <UniProt (TrEMBL) Primary ID of Target Chain>


>  <UniProt (TrEMBL) Secondary ID(s) of Target Chain>


>  <UniProt (TrEMBL) Alternative ID(s) of Target Chain>


$$$$
Untitled Document-1
 OpenBabel07052409033D

 36 37  0  0  0  0  0  0  0  0999 V2000
   -1.3923   -0.3972   -0.5099 C   0  0  0  0  0  0  0  0  0  0  0  0
   -2.8085   -0.0958   -0.2096 C   0  0  0  0  0  0  0  0  0  0  0  0
   -3.2111    1.1698    0.2687 C   0  0  0  0  0  0  0  0  0  0  0  0
   -4.5638    1.4083    0.5556 C   0  0  0  0  0  0  0  0  0  0  0  0
   -5.5162    0.4082    0.3486 C   0  0  0  0  0  0  0  0  0  0  0  0
   -5.1261   -0.8352   -0.1508 C   0  0  0  0  0  0  0  0  0  0  0  0
   -3.7810   -1.0859   -0.4335 C   0  0  0  0  0  0  0  0  0  0  0  0
   -1.1124   -1.0070   -1.5776 O   0  0  0  0  0  0  0  0  0  0  0  0
   -0.3480   -0.0083    0.4009 N   0  0  0  0  0  0  0  0  0  0  0  0
    1.0470   -0.2845    0.1911 C   0  0  0  0  0  0  0  0  0  0  0  0
    1.4822   -1.5164   -0.3259 C   0  0  0  0  0  0  0  0  0  0  0  0
    2.8463   -1.7693   -0.4959 C   0  0  0  0  0  0  0  0  0  0  0  0
    3.8031   -0.8008   -0.1395 C   0  0  0  0  0  0  0  0  0  0  0  0
    3.3640    0.4194    0.4018 C   0  0  0  0  0  0  0  0  0  0  0  0
    1.9996    0.6699    0.5723 C   0  0  0  0  0  0  0  0  0  0  0  0
    5.2871   -1.0622   -0.3171 C   0  0  0  0  0  0  0  0  0  0  0  0
    5.6355   -1.2935   -1.7924 C   0  0  0  0  0  0  0  0  0  0  0  0
    5.7478   -2.2398    0.5498 C   0  0  0  0  0  0  0  0  0  0  0  0
   -2.2798    2.1955    0.4306 O   0  0  0  0  0  0  0  0  0  0  0  0
   -4.8564    2.3278    0.9216 H   0  0  0  0  0  0  0  0  0  0  0  0
   -6.5090    0.5887    0.5650 H   0  0  0  0  0  0  0  0  0  0  0  0
   -5.8322   -1.5705   -0.3115 H   0  0  0  0  0  0  0  0  0  0  0  0
   -3.4993   -2.0048   -0.8095 H   0  0  0  0  0  0  0  0  0  0  0  0
   -0.6049    0.4769    1.2181 H   0  0  0  0  0  0  0  0  0  0  0  0
    0.7907   -2.2386   -0.5816 H   0  0  0  0  0  0  0  0  0  0  0  0
    3.1544   -2.6737   -0.8860 H   0  0  0  0  0  0  0  0  0  0  0  0
    4.0543    1.1361    0.6755 H   0  0  0  0  0  0  0  0  0  0  0  0
    1.6911    1.5653    0.9824 H   0  0  0  0  0  0  0  0  0  0  0  0
    5.8134   -0.1897    0.0096 H   0  0  0  0  0  0  0  0  0  0  0  0
    5.1221   -2.1623   -2.1481 H   0  0  0  0  0  0  0  0  0  0  0  0
    6.6911   -1.4375   -1.8912 H   0  0  0  0  0  0  0  0  0  0  0  0
    5.3363   -0.4421   -2.3673 H   0  0  0  0  0  0  0  0  0  0  0  0
    5.2365   -3.1288    0.2447 H   0  0  0  0  0  0  0  0  0  0  0  0
    5.5259   -2.0352    1.5764 H   0  0  0  0  0  0  0  0  0  0  0  0
    6.8025   -2.3772    0.4334 H   0  0  0  0  0  0  0  0  0  0  0  0
   -1.3753    2.0414    0.2404 H   0  0  0  0  0  0  0  0  0  0  0  0
  1  2  1  0  0  0  0
  1  8  2  0  0  0  0
  1  9  1  0  0  0  0
  2  3  2  0  0  0  0
  2  7  1  0  0  0  0
  3  4  1  0  0  0  0
  3 19  1  0  0  0  0
  4  5  2  0  0  0  0
  4 20  1  0  0  0  0
  5  6  1  0  0  0  0
  5 21  1  0  0  0  0
  6  7  2  0  0  0  0
  6 22  1  0  0  0  0
  7 23  1  0  0  0  0
  9 10  1  0  0  0  0
  9 24  1  0  0  0  0
 10 11  2  0  0  0  0
 10 15  1  0  0  0  0
 11 12  1  0  0  0  0
 11 25  1  0  0  0  0
 12 13  2  0  0  0  0
 12 26  1  0  0  0  0
 13 14  1  0  0  0  0
 13 16  1  0  0  0  0
 14 15  2  0  0  0  0
 14 27  1  0  0  0  0
 15 28  1  0  0  0  0
 16 17  1  0  0  0  0
 16 18  1  0  0  0  0
 16 29  1  0  0  0  0
 17 30  1  0  0  0  0
 17 31  1  0  0  0  0
 17 32  1  0  0  0  0
 18 33  1  0  0  0  0
 18 34  1  0  0  0  0
 18 35  1  0  0  0  0
 19 36  1  0  0  0  0
M  END
>  <From>
www.bindingDB.org

>  <BindingDB Reactant_set_id>
408355

>  <Ligand InChI>
InChI=1S/C16H17NO2/c1-11(2)12-7-9-13(10-8-12)17-16(19)14-5-3-4-6-15(14)18/h3-11,18H,1-2H3,(H,17,19)

>  <Ligand InChI Key>
CVUDMYZNTCVWMV-UHFFFAOYSA-N

>  <BindingDB MonomerID>
234310

>  <BindingDB Ligand Name>
2-Hydroxy-N-(4-isopropylphenyl)benzamide (12)

>  <Target Name>
Epidermal growth factor receptor [645-1186]

>  <Target Source Organism According to Curator or DataSource>


>  <Ki (nM)>


>  <IC50 (nM)>
29620

>  <Kd (nM)>


>  <EC50 (nM)>


>  <kon (M-1-s-1)>


>  <koff (s-1)>


>  <pH>
7.4

>  <Temp C>
25.00

>  <Curation/DataSource>
Curated from the literature by BindingDB

>  <Article DOI>
10.3109/14756361003671060

>  <BindingDB Entry DOI>
10.7270/Q2XW4HPN

>  <PMID>
20583855

>  <PubChem AID>
aid1802974

>  <Patent Number>


>  <Authors>
Zhu, ZW; Shi, L; Ruan, XM; Yang, Y; Li, HQ; Xu, SP; Zhu, HL

>  <Institution>
Nanjing University

>  <Link to Ligand in BindingDB>
http://www.bindingdb.org/bind/chemsearch/marvin/MolStructure.jsp?monomerid=234310

>  <Link to Ligand-Target Pair in BindingDB>
http://www.bindingdb.org/jsp/dbsearch/PrimarySearch_ki.jsp?energyterm=kJ/mole&tag=r21&monomerid=234310&enzyme=Epidermal+growth+factor+receptor+%5B645-1186%5D&column=ki&startPg=0&Increment=50&submit=Search

>  <Ligand HET ID in PDB>


>  <PDB ID(s) for Ligand-Target Complex>


>  <PubChem CID of Ligand>
9795043

>  <PubChem SID of Ligand>
340094299

>  <ChEBI ID of Ligand>


>  <ChEMBL ID of Ligand>


>  <DrugBank ID of Ligand>


>  <IUPHAR_GRAC ID of Ligand>


>  <KEGG ID of Ligand>


>  <ZINC ID of Ligand>


>  <Number of Protein Chains in Target (bigger than 1 implies a multichain complex)>
1

>  <BindingDB Target Chain Sequence>
SIATGMVGALLLLLVVALGIGLFMRRRHIVRKRTLRRLLQERELVEPLTPSGEAPNQALLRILKETEFKKIKVLGSGAFGTVYKGLWIPEGEKVKIPVAIKELREATSPKANKEILDEAYVMASVDNPHVCRLLGICLTSTVQLITQLMPFGCLLDYVREHKDNIGSQYLLNWCVQIAKGMNYLEDRRLVHRDLAARNVLVKTPQHVKITDFGLAKLLGAEEKEYHAEGGKVPIKWMALESILHRIYTHQSDVWSYGVTVWELMTFGSKPYDGIPASEISSILEKGERLPQPPICTIDVYMIMVKCWMIDADSRPKFRELIIEFSKMARDPQRYLVIQGDERMHLPSPTDSNFYRALMDEEDMDDVVDADEYLIPQQGFFSSPSTSRTPLLSSLSATSNNSTVACIDRNGLQSCPIKEDSFLQRYSSDPTGALTEDSIDDTFLPVPEYINQSVPKRPAGSVQNPVYHNQPLNPAPSRDPHYQDPHSTAVGNPEYLNTVQPTCVNSTFDSPAHWAQKGSHQISLDNPDYQQDFFPKEAKPNGI

>  <PDB ID(s) of Target Chain>
1M14,1M17,1XKK,1Z9I,2GS2,2GS6,2ITW,2ITX,2ITY,2J5E,2J5F,2J6M,2RF9,2RGP,3BEL,3GOP,3POZ,3VJO,3W2O,3W2P,3W2Q,3W2R,3W2S,3W32,3W33,4G5J,4I23,4JQ7,4JQ8,4JR3,4JRV,4LI5,4RJ4,4RJ5,4RJ6,4RJ7,4RJ8,4TKS,4WKQ,4WRG,4ZAU,5C8K,5C8M,5C8N,5CAL,5CAN,5CAO,5CAP,5CAQ,5CAS,5CAU,5CAV,5EDP,5EDQ,5EDR,5EM5,5EM6,5EM7,5EM8,5GNK,5HCX,5HCY,5HCZ,5HIB,5HIC,5UGB,5Y25,6D8E,6JZ0,6S89,6S8A,6VH4,6VHN,6VHP,7AEI,7AEM,7B85,7OXB,7SI1,7UKV,7ZYM,7ZYN,7ZYP,8A27,8A2A,8HY7

>  <UniProt (SwissProt) Recommended Name of Target Chain>
Epidermal growth factor receptor

>  <UniProt (SwissProt) Entry Name of Target Chain>
EGFR_HUMAN

>  <UniProt (SwissProt) Primary ID of Target Chain>
P00533

>  <UniProt (SwissProt) Secondary ID(s) of Target Chain>
O00688 O00732 P06268 Q14225 Q68GS5 Q92795 Q9BZS2 Q9GZX1 Q9H2C9 Q9H3C9 Q9UMD7 Q9UMD8 Q9UMG5

>  <UniProt (SwissProt) Alternative ID(s) of Target Chain>


>  <UniProt (TrEMBL) Submitted Name of Target Chain>


>  <UniProt (TrEMBL) Entry Name of Target Chain>


>  <UniProt (TrEMBL) Primary ID of Target Chain>


>  <UniProt (TrEMBL) Secondary ID(s) of Target Chain>


>  <UniProt (TrEMBL) Alternative ID(s) of Target Chain>


$$$$
Untitled Document-1
 OpenBabel07052409033D

 30 31  0  0  0  0  0  0  0  0999 V2000
   -1.4095   -0.5985   -0.0935 C   0  0  0  0  0  0  0  0  0  0  0  0
   -2.8109   -0.1280   -0.1418 C   0  0  0  0  0  0  0  0  0  0  0  0
   -3.2091    1.0731    0.4815 C   0  0  0  0  0  0  0  0  0  0  0  0
   -4.5450    1.4934    0.3987 C   0  0  0  0  0  0  0  0  0  0  0  0
   -5.4933    0.7240   -0.2902 C   0  0  0  0  0  0  0  0  0  0  0  0
   -5.1045   -0.4917   -0.8679 C   0  0  0  0  0  0  0  0  0  0  0  0
   -3.7747   -0.9130   -0.7958 C   0  0  0  0  0  0  0  0  0  0  0  0
   -1.1817   -1.8193    0.1267 O   0  0  0  0  0  0  0  0  0  0  0  0
   -0.3191    0.3161   -0.3026 N   0  0  0  0  0  0  0  0  0  0  0  0
   -6.9286    1.1577   -0.3367 C   0  0  0  0  0  0  0  0  0  0  0  0
   -2.2908    1.8320    1.2074 O   0  0  0  0  0  0  0  0  0  0  0  0
    1.0642   -0.0693   -0.2367 C   0  0  0  0  0  0  0  0  0  0  0  0
    1.9964    0.7503    0.4300 C   0  0  0  0  0  0  0  0  0  0  0  0
    3.3482    0.3872    0.4682 C   0  0  0  0  0  0  0  0  0  0  0  0
    3.7826   -0.7809   -0.1649 C   0  0  0  0  0  0  0  0  0  0  0  0
    2.8661   -1.5881   -0.8437 C   0  0  0  0  0  0  0  0  0  0  0  0
    1.5152   -1.2331   -0.8852 C   0  0  0  0  0  0  0  0  0  0  0  0
    5.4780   -1.2282   -0.1151 Cl  0  0  0  0  0  0  0  0  0  0  0  0
    1.4904    2.2184    1.2565 Cl  0  0  0  0  0  0  0  0  0  0  0  0
   -4.8322    2.3766    0.8488 H   0  0  0  0  0  0  0  0  0  0  0  0
   -5.8039   -1.0787   -1.3489 H   0  0  0  0  0  0  0  0  0  0  0  0
   -3.4979   -1.8089   -1.2268 H   0  0  0  0  0  0  0  0  0  0  0  0
   -0.5316    1.2566   -0.5015 H   0  0  0  0  0  0  0  0  0  0  0  0
   -7.0312    2.1040    0.1520 H   0  0  0  0  0  0  0  0  0  0  0  0
   -7.5369    0.4315    0.1608 H   0  0  0  0  0  0  0  0  0  0  0  0
   -7.2414    1.2469   -1.3561 H   0  0  0  0  0  0  0  0  0  0  0  0
   -1.3973    1.5560    1.2660 H   0  0  0  0  0  0  0  0  0  0  0  0
    4.0268    0.9846    0.9659 H   0  0  0  0  0  0  0  0  0  0  0  0
    3.1874   -2.4480   -1.3152 H   0  0  0  0  0  0  0  0  0  0  0  0
    0.8441   -1.8287   -1.3950 H   0  0  0  0  0  0  0  0  0  0  0  0
  1  2  1  0  0  0  0
  1  8  2  0  0  0  0
  1  9  1  0  0  0  0
  2  3  2  0  0  0  0
  2  7  1  0  0  0  0
  3  4  1  0  0  0  0
  3 11  1  0  0  0  0
  4  5  2  0  0  0  0
  4 20  1  0  0  0  0
  5  6  1  0  0  0  0
  5 10  1  0  0  0  0
  6  7  2  0  0  0  0
  6 21  1  0  0  0  0
  7 22  1  0  0  0  0
  9 12  1  0  0  0  0
  9 23  1  0  0  0  0
 10 24  1  0  0  0  0
 10 25  1  0  0  0  0
 10 26  1  0  0  0  0
 11 27  1  0  0  0  0
 12 13  2  0  0  0  0
 12 17  1  0  0  0  0
 13 14  1  0  0  0  0
 13 19  1  0  0  0  0
 14 15  2  0  0  0  0
 14 28  1  0  0  0  0
 15 16  1  0  0  0  0
 15 18  1  0  0  0  0
 16 17  2  0  0  0  0
 16 29  1  0  0  0  0
 17 30  1  0  0  0  0
M  END
>  <From>
www.bindingDB.org

>  <BindingDB Reactant_set_id>
408361

>  <Ligand InChI>
InChI=1S/C14H11Cl2NO2/c1-8-2-4-10(13(18)6-8)14(19)17-12-5-3-9(15)7-11(12)16/h2-7,18H,1H3,(H,17,19)

>  <Ligand InChI Key>
ZSHHCMUVJYRJCD-UHFFFAOYSA-N

>  <BindingDB MonomerID>
234316

>  <BindingDB Ligand Name>
N-(2,4-dichlorophenyl)-2-hydroxy-4-methylbenzamide (18)

>  <Target Name>
Epidermal growth factor receptor [645-1186]

>  <Target Source Organism According to Curator or DataSource>


>  <Ki (nM)>


>  <IC50 (nM)>
31090

>  <Kd (nM)>


>  <EC50 (nM)>


>  <kon (M-1-s-1)>


>  <koff (s-1)>


>  <pH>
7.4

>  <Temp C>
25.00

>  <Curation/DataSource>
Curated from the literature by BindingDB

>  <Article DOI>
10.3109/14756361003671060

>  <BindingDB Entry DOI>
10.7270/Q2XW4HPN

>  <PMID>
20583855

>  <PubChem AID>
aid1802974

>  <Patent Number>


>  <Authors>
Zhu, ZW; Shi, L; Ruan, XM; Yang, Y; Li, HQ; Xu, SP; Zhu, HL

>  <Institution>
Nanjing University

>  <Link to Ligand in BindingDB>
http://www.bindingdb.org/bind/chemsearch/marvin/MolStructure.jsp?monomerid=234316

>  <Link to Ligand-Target Pair in BindingDB>
http://www.bindingdb.org/jsp/dbsearch/PrimarySearch_ki.jsp?energyterm=kJ/mole&tag=r21&monomerid=234316&enzyme=Epidermal+growth+factor+receptor+%5B645-1186%5D&column=ki&startPg=0&Increment=50&submit=Search

>  <Ligand HET ID in PDB>


>  <PDB ID(s) for Ligand-Target Complex>


>  <PubChem CID of Ligand>
29560245

>  <PubChem SID of Ligand>
340094305

>  <ChEBI ID of Ligand>


>  <ChEMBL ID of Ligand>


>  <DrugBank ID of Ligand>


>  <IUPHAR_GRAC ID of Ligand>


>  <KEGG ID of Ligand>


>  <ZINC ID of Ligand>


>  <Number of Protein Chains in Target (bigger than 1 implies a multichain complex)>
1

>  <BindingDB Target Chain Sequence>
SIATGMVGALLLLLVVALGIGLFMRRRHIVRKRTLRRLLQERELVEPLTPSGEAPNQALLRILKETEFKKIKVLGSGAFGTVYKGLWIPEGEKVKIPVAIKELREATSPKANKEILDEAYVMASVDNPHVCRLLGICLTSTVQLITQLMPFGCLLDYVREHKDNIGSQYLLNWCVQIAKGMNYLEDRRLVHRDLAARNVLVKTPQHVKITDFGLAKLLGAEEKEYHAEGGKVPIKWMALESILHRIYTHQSDVWSYGVTVWELMTFGSKPYDGIPASEISSILEKGERLPQPPICTIDVYMIMVKCWMIDADSRPKFRELIIEFSKMARDPQRYLVIQGDERMHLPSPTDSNFYRALMDEEDMDDVVDADEYLIPQQGFFSSPSTSRTPLLSSLSATSNNSTVACIDRNGLQSCPIKEDSFLQRYSSDPTGALTEDSIDDTFLPVPEYINQSVPKRPAGSVQNPVYHNQPLNPAPSRDPHYQDPHSTAVGNPEYLNTVQPTCVNSTFDSPAHWAQKGSHQISLDNPDYQQDFFPKEAKPNGI

>  <PDB ID(s) of Target Chain>
1M14,1M17,1XKK,1Z9I,2GS2,2GS6,2ITW,2ITX,2ITY,2J5E,2J5F,2J6M,2RF9,2RGP,3BEL,3GOP,3POZ,3VJO,3W2O,3W2P,3W2Q,3W2R,3W2S,3W32,3W33,4G5J,4I23,4JQ7,4JQ8,4JR3,4JRV,4LI5,4RJ4,4RJ5,4RJ6,4RJ7,4RJ8,4TKS,4WKQ,4WRG,4ZAU,5C8K,5C8M,5C8N,5CAL,5CAN,5CAO,5CAP,5CAQ,5CAS,5CAU,5CAV,5EDP,5EDQ,5EDR,5EM5,5EM6,5EM7,5EM8,5GNK,5HCX,5HCY,5HCZ,5HIB,5HIC,5UGB,5Y25,6D8E,6JZ0,6S89,6S8A,6VH4,6VHN,6VHP,7AEI,7AEM,7B85,7OXB,7SI1,7UKV,7ZYM,7ZYN,7ZYP,8A27,8A2A,8HY7

>  <UniProt (SwissProt) Recommended Name of Target Chain>
Epidermal growth factor receptor

>  <UniProt (SwissProt) Entry Name of Target Chain>
EGFR_HUMAN

>  <UniProt (SwissProt) Primary ID of Target Chain>
P00533

>  <UniProt (SwissProt) Secondary ID(s) of Target Chain>
O00688 O00732 P06268 Q14225 Q68GS5 Q92795 Q9BZS2 Q9GZX1 Q9H2C9 Q9H3C9 Q9UMD7 Q9UMD8 Q9UMG5

>  <UniProt (SwissProt) Alternative ID(s) of Target Chain>


>  <UniProt (TrEMBL) Submitted Name of Target Chain>


>  <UniProt (TrEMBL) Entry Name of Target Chain>


>  <UniProt (TrEMBL) Primary ID of Target Chain>


>  <UniProt (TrEMBL) Secondary ID(s) of Target Chain>


>  <UniProt (TrEMBL) Alternative ID(s) of Target Chain>


$$$$
Untitled Document-1
 OpenBabel07052409033D

 33 34  0  0  0  0  0  0  0  0999 V2000
   -1.3911   -0.3962   -0.5103 C   0  0  0  0  0  0  0  0  0  0  0  0
   -2.8075   -0.0959   -0.2097 C   0  0  0  0  0  0  0  0  0  0  0  0
   -3.2104    1.1687    0.2674 C   0  0  0  0  0  0  0  0  0  0  0  0
   -4.5624    1.4079    0.5561 C   0  0  0  0  0  0  0  0  0  0  0  0
   -5.5212    0.4032    0.3640 C   0  0  0  0  0  0  0  0  0  0  0  0
   -5.1245   -0.8363   -0.1549 C   0  0  0  0  0  0  0  0  0  0  0  0
   -3.7793   -1.0840   -0.4377 C   0  0  0  0  0  0  0  0  0  0  0  0
   -1.1106   -1.0042   -1.5788 O   0  0  0  0  0  0  0  0  0  0  0  0
   -0.3473   -0.0080    0.4013 N   0  0  0  0  0  0  0  0  0  0  0  0
    1.0478   -0.2847    0.1928 C   0  0  0  0  0  0  0  0  0  0  0  0
    2.0006    0.6721    0.5714 C   0  0  0  0  0  0  0  0  0  0  0  0
    3.7980   -0.8065   -0.1224 C   0  0  0  0  0  0  0  0  0  0  0  0
    1.4834   -1.5169   -0.3260 C   0  0  0  0  0  0  0  0  0  0  0  0
    3.3652    0.4203    0.4017 C   0  0  0  0  0  0  0  0  0  0  0  0
    2.8483   -1.7693   -0.4947 C   0  0  0  0  0  0  0  0  0  0  0  0
    5.2599   -1.0626   -0.3399 C   0  0  0  0  0  0  0  0  0  0  0  0
   -6.9707    0.6806    0.6329 C   0  0  0  0  0  0  0  0  0  0  0  0
   -2.2791    2.1952    0.4250 O   0  0  0  0  0  0  0  0  0  0  0  0
   -4.8536    2.3314    0.9130 H   0  0  0  0  0  0  0  0  0  0  0  0
   -5.8294   -1.5696   -0.3290 H   0  0  0  0  0  0  0  0  0  0  0  0
   -3.4969   -2.0011   -0.8175 H   0  0  0  0  0  0  0  0  0  0  0  0
   -0.6047    0.4772    1.2184 H   0  0  0  0  0  0  0  0  0  0  0  0
    1.6921    1.5689    0.9784 H   0  0  0  0  0  0  0  0  0  0  0  0
    0.7922   -2.2386   -0.5836 H   0  0  0  0  0  0  0  0  0  0  0  0
    4.0570    1.1401    0.6632 H   0  0  0  0  0  0  0  0  0  0  0  0
    3.1585   -2.6684   -0.8951 H   0  0  0  0  0  0  0  0  0  0  0  0
    5.8244   -0.2211    0.0038 H   0  0  0  0  0  0  0  0  0  0  0  0
    5.4442   -1.2137   -1.3830 H   0  0  0  0  0  0  0  0  0  0  0  0
    5.5539   -1.9357    0.2043 H   0  0  0  0  0  0  0  0  0  0  0  0
   -7.0778    1.6708    1.0239 H   0  0  0  0  0  0  0  0  0  0  0  0
   -7.3430   -0.0261    1.3448 H   0  0  0  0  0  0  0  0  0  0  0  0
   -7.5252    0.5950   -0.2782 H   0  0  0  0  0  0  0  0  0  0  0  0
   -1.3749    2.0409    0.2336 H   0  0  0  0  0  0  0  0  0  0  0  0
  1  2  1  0  0  0  0
  1  8  2  0  0  0  0
  1  9  1  0  0  0  0
  2  3  2  0  0  0  0
  2  7  1  0  0  0  0
  3  4  1  0  0  0  0
  3 18  1  0  0  0  0
  4  5  2  0  0  0  0
  4 19  1  0  0  0  0
  5  6  1  0  0  0  0
  5 17  1  0  0  0  0
  6  7  2  0  0  0  0
  6 20  1  0  0  0  0
  7 21  1  0  0  0  0
  9 10  1  0  0  0  0
  9 22  1  0  0  0  0
 10 11  2  0  0  0  0
 10 13  1  0  0  0  0
 11 14  1  0  0  0  0
 11 23  1  0  0  0  0
 12 14  2  0  0  0  0
 12 15  1  0  0  0  0
 12 16  1  0  0  0  0
 13 15  2  0  0  0  0
 13 24  1  0  0  0  0
 14 25  1  0  0  0  0
 15 26  1  0  0  0  0
 16 27  1  0  0  0  0
 16 28  1  0  0  0  0
 16 29  1  0  0  0  0
 17 30  1  0  0  0  0
 17 31  1  0  0  0  0
 17 32  1  0  0  0  0
 18 33  1  0  0  0  0
M  END
>  <From>
www.bindingDB.org

>  <BindingDB Reactant_set_id>
408362

>  <Ligand InChI>
InChI=1S/C15H15NO2/c1-10-3-6-12(7-4-10)16-15(18)13-8-5-11(2)9-14(13)17/h3-9,17H,1-2H3,(H,16,18)

>  <Ligand InChI Key>
RQABWRMPSFQPTI-UHFFFAOYSA-N

>  <BindingDB MonomerID>
234317

>  <BindingDB Ligand Name>
2-Hydroxy-4-methyl-N-p-tolylbenzamide (19)

>  <Target Name>
Epidermal growth factor receptor [645-1186]

>  <Target Source Organism According to Curator or DataSource>


>  <Ki (nM)>


>  <IC50 (nM)>
34670

>  <Kd (nM)>


>  <EC50 (nM)>


>  <kon (M-1-s-1)>


>  <koff (s-1)>


>  <pH>
7.4

>  <Temp C>
25.00

>  <Curation/DataSource>
Curated from the literature by BindingDB

>  <Article DOI>
10.3109/14756361003671060

>  <BindingDB Entry DOI>
10.7270/Q2XW4HPN

>  <PMID>
20583855

>  <PubChem AID>
aid1802974

>  <Patent Number>


>  <Authors>
Zhu, ZW; Shi, L; Ruan, XM; Yang, Y; Li, HQ; Xu, SP; Zhu, HL

>  <Institution>
Nanjing University

>  <Link to Ligand in BindingDB>
http://www.bindingdb.org/bind/chemsearch/marvin/MolStructure.jsp?monomerid=234317

>  <Link to Ligand-Target Pair in BindingDB>
http://www.bindingdb.org/jsp/dbsearch/PrimarySearch_ki.jsp?energyterm=kJ/mole&tag=r21&monomerid=234317&enzyme=Epidermal+growth+factor+receptor+%5B645-1186%5D&column=ki&startPg=0&Increment=50&submit=Search

>  <Ligand HET ID in PDB>


>  <PDB ID(s) for Ligand-Target Complex>


>  <PubChem CID of Ligand>
5274033

>  <PubChem SID of Ligand>
340094306

>  <ChEBI ID of Ligand>


>  <ChEMBL ID of Ligand>


>  <DrugBank ID of Ligand>


>  <IUPHAR_GRAC ID of Ligand>


>  <KEGG ID of Ligand>


>  <ZINC ID of Ligand>


>  <Number of Protein Chains in Target (bigger than 1 implies a multichain complex)>
1

>  <BindingDB Target Chain Sequence>
SIATGMVGALLLLLVVALGIGLFMRRRHIVRKRTLRRLLQERELVEPLTPSGEAPNQALLRILKETEFKKIKVLGSGAFGTVYKGLWIPEGEKVKIPVAIKELREATSPKANKEILDEAYVMASVDNPHVCRLLGICLTSTVQLITQLMPFGCLLDYVREHKDNIGSQYLLNWCVQIAKGMNYLEDRRLVHRDLAARNVLVKTPQHVKITDFGLAKLLGAEEKEYHAEGGKVPIKWMALESILHRIYTHQSDVWSYGVTVWELMTFGSKPYDGIPASEISSILEKGERLPQPPICTIDVYMIMVKCWMIDADSRPKFRELIIEFSKMARDPQRYLVIQGDERMHLPSPTDSNFYRALMDEEDMDDVVDADEYLIPQQGFFSSPSTSRTPLLSSLSATSNNSTVACIDRNGLQSCPIKEDSFLQRYSSDPTGALTEDSIDDTFLPVPEYINQSVPKRPAGSVQNPVYHNQPLNPAPSRDPHYQDPHSTAVGNPEYLNTVQPTCVNSTFDSPAHWAQKGSHQISLDNPDYQQDFFPKEAKPNGI

>  <PDB ID(s) of Target Chain>
1M14,1M17,1XKK,1Z9I,2GS2,2GS6,2ITW,2ITX,2ITY,2J5E,2J5F,2J6M,2RF9,2RGP,3BEL,3GOP,3POZ,3VJO,3W2O,3W2P,3W2Q,3W2R,3W2S,3W32,3W33,4G5J,4I23,4JQ7,4JQ8,4JR3,4JRV,4LI5,4RJ4,4RJ5,4RJ6,4RJ7,4RJ8,4TKS,4WKQ,4WRG,4ZAU,5C8K,5C8M,5C8N,5CAL,5CAN,5CAO,5CAP,5CAQ,5CAS,5CAU,5CAV,5EDP,5EDQ,5EDR,5EM5,5EM6,5EM7,5EM8,5GNK,5HCX,5HCY,5HCZ,5HIB,5HIC,5UGB,5Y25,6D8E,6JZ0,6S89,6S8A,6VH4,6VHN,6VHP,7AEI,7AEM,7B85,7OXB,7SI1,7UKV,7ZYM,7ZYN,7ZYP,8A27,8A2A,8HY7

>  <UniProt (SwissProt) Recommended Name of Target Chain>
Epidermal growth factor receptor

>  <UniProt (SwissProt) Entry Name of Target Chain>
EGFR_HUMAN

>  <UniProt (SwissProt) Primary ID of Target Chain>
P00533

>  <UniProt (SwissProt) Secondary ID(s) of Target Chain>
O00688 O00732 P06268 Q14225 Q68GS5 Q92795 Q9BZS2 Q9GZX1 Q9H2C9 Q9H3C9 Q9UMD7 Q9UMD8 Q9UMG5

>  <UniProt (SwissProt) Alternative ID(s) of Target Chain>


>  <UniProt (TrEMBL) Submitted Name of Target Chain>


>  <UniProt (TrEMBL) Entry Name of Target Chain>


>  <UniProt (TrEMBL) Primary ID of Target Chain>


>  <UniProt (TrEMBL) Secondary ID(s) of Target Chain>


>  <UniProt (TrEMBL) Alternative ID(s) of Target Chain>


$$$$
Untitled Document-1
 OpenBabel07052409033D

 31 32  0  0  0  0  0  0  0  0999 V2000
   -1.4112   -0.6048   -0.0727 C   0  0  0  0  0  0  0  0  0  0  0  0
   -2.8085   -0.1253   -0.1373 C   0  0  0  0  0  0  0  0  0  0  0  0
   -3.2161    1.0591    0.5139 C   0  0  0  0  0  0  0  0  0  0  0  0
   -4.5490    1.4861    0.4139 C   0  0  0  0  0  0  0  0  0  0  0  0
   -5.4789    0.7338   -0.3068 C   0  0  0  0  0  0  0  0  0  0  0  0
   -5.0864   -0.4524   -0.9286 C   0  0  0  0  0  0  0  0  0  0  0  0
   -3.7602   -0.8835   -0.8412 C   0  0  0  0  0  0  0  0  0  0  0  0
   -1.1965   -1.8283    0.1445 O   0  0  0  0  0  0  0  0  0  0  0  0
   -0.3116    0.3047   -0.2598 N   0  0  0  0  0  0  0  0  0  0  0  0
    1.0710   -0.0879   -0.2346 C   0  0  0  0  0  0  0  0  0  0  0  0
    2.0174    0.7712    0.3412 C   0  0  0  0  0  0  0  0  0  0  0  0
    3.3713    0.4250    0.3581 C   0  0  0  0  0  0  0  0  0  0  0  0
    3.8056   -0.7753   -0.2151 C   0  0  0  0  0  0  0  0  0  0  0  0
    2.8616   -1.6288   -0.8168 C   0  0  0  0  0  0  0  0  0  0  0  0
    1.5068   -1.2831   -0.8326 C   0  0  0  0  0  0  0  0  0  0  0  0
    5.1746   -1.0785   -0.1711 O   0  0  0  0  0  0  0  0  0  0  0  0
    5.7537   -2.2608   -0.7137 C   0  0  0  0  0  0  0  0  0  0  0  0
   -2.3117    1.7933    1.2811 O   0  0  0  0  0  0  0  0  0  0  0  0
   -4.8437    2.3608    0.8755 H   0  0  0  0  0  0  0  0  0  0  0  0
   -6.4569    1.0552   -0.3797 H   0  0  0  0  0  0  0  0  0  0  0  0
   -5.7766   -1.0119   -1.4536 H   0  0  0  0  0  0  0  0  0  0  0  0
   -3.4772   -1.7652   -1.2968 H   0  0  0  0  0  0  0  0  0  0  0  0
   -0.5192    1.2545   -0.4146 H   0  0  0  0  0  0  0  0  0  0  0  0
    1.7121    1.6657    0.7556 H   0  0  0  0  0  0  0  0  0  0  0  0
    4.0564    1.0599    0.7970 H   0  0  0  0  0  0  0  0  0  0  0  0
    3.1709   -2.5138   -1.2483 H   0  0  0  0  0  0  0  0  0  0  0  0
    0.8229   -1.9090   -1.2859 H   0  0  0  0  0  0  0  0  0  0  0  0
    6.8108   -2.2484   -0.5485 H   0  0  0  0  0  0  0  0  0  0  0  0
    5.5575   -2.3042   -1.7647 H   0  0  0  0  0  0  0  0  0  0  0  0
    5.3280   -3.1182   -0.2357 H   0  0  0  0  0  0  0  0  0  0  0  0
   -1.4205    1.5124    1.3511 H   0  0  0  0  0  0  0  0  0  0  0  0
  1  2  1  0  0  0  0
  1  8  2  0  0  0  0
  1  9  1  0  0  0  0
  2  3  2  0  0  0  0
  2  7  1  0  0  0  0
  3  4  1  0  0  0  0
  3 18  1  0  0  0  0
  4  5  2  0  0  0  0
  4 19  1  0  0  0  0
  5  6  1  0  0  0  0
  5 20  1  0  0  0  0
  6  7  2  0  0  0  0
  6 21  1  0  0  0  0
  7 22  1  0  0  0  0
  9 10  1  0  0  0  0
  9 23  1  0  0  0  0
 10 11  2  0  0  0  0
 10 15  1  0  0  0  0
 11 12  1  0  0  0  0
 11 24  1  0  0  0  0
 12 13  2  0  0  0  0
 12 25  1  0  0  0  0
 13 14  1  0  0  0  0
 13 16  1  0  0  0  0
 14 15  2  0  0  0  0
 14 26  1  0  0  0  0
 15 27  1  0  0  0  0
 16 17  1  0  0  0  0
 17 28  1  0  0  0  0
 17 29  1  0  0  0  0
 17 30  1  0  0  0  0
 18 31  1  0  0  0  0
M  END
>  <From>
www.bindingDB.org

>  <BindingDB Reactant_set_id>
408354

>  <Ligand InChI>
InChI=1S/C14H13NO3/c1-18-11-8-6-10(7-9-11)15-14(17)12-4-2-3-5-13(12)16/h2-9,16H,1H3,(H,15,17)

>  <Ligand InChI Key>
SZEPRRFZUWYXNA-UHFFFAOYSA-N

>  <BindingDB MonomerID>
234309

>  <BindingDB Ligand Name>
2-Hydroxy-N-(4-methoxyphenyl)benzamide (11)

>  <Target Name>
Epidermal growth factor receptor [645-1186]

>  <Target Source Organism According to Curator or DataSource>


>  <Ki (nM)>


>  <IC50 (nM)>
39980

>  <Kd (nM)>


>  <EC50 (nM)>


>  <kon (M-1-s-1)>


>  <koff (s-1)>


>  <pH>
7.4

>  <Temp C>
25.00

>  <Curation/DataSource>
Curated from the literature by BindingDB

>  <Article DOI>
10.3109/14756361003671060

>  <BindingDB Entry DOI>
10.7270/Q2XW4HPN

>  <PMID>
20583855

>  <PubChem AID>
aid1802974

>  <Patent Number>


>  <Authors>
Zhu, ZW; Shi, L; Ruan, XM; Yang, Y; Li, HQ; Xu, SP; Zhu, HL

>  <Institution>
Nanjing University

>  <Link to Ligand in BindingDB>
http://www.bindingdb.org/bind/chemsearch/marvin/MolStructure.jsp?monomerid=234309

>  <Link to Ligand-Target Pair in BindingDB>
http://www.bindingdb.org/jsp/dbsearch/PrimarySearch_ki.jsp?energyterm=kJ/mole&tag=r21&monomerid=234309&enzyme=Epidermal+growth+factor+receptor+%5B645-1186%5D&column=ki&startPg=0&Increment=50&submit=Search

>  <Ligand HET ID in PDB>


>  <PDB ID(s) for Ligand-Target Complex>


>  <PubChem CID of Ligand>
478806

>  <PubChem SID of Ligand>
340094298

>  <ChEBI ID of Ligand>


>  <ChEMBL ID of Ligand>


>  <DrugBank ID of Ligand>


>  <IUPHAR_GRAC ID of Ligand>


>  <KEGG ID of Ligand>


>  <ZINC ID of Ligand>


>  <Number of Protein Chains in Target (bigger than 1 implies a multichain complex)>
1

>  <BindingDB Target Chain Sequence>
SIATGMVGALLLLLVVALGIGLFMRRRHIVRKRTLRRLLQERELVEPLTPSGEAPNQALLRILKETEFKKIKVLGSGAFGTVYKGLWIPEGEKVKIPVAIKELREATSPKANKEILDEAYVMASVDNPHVCRLLGICLTSTVQLITQLMPFGCLLDYVREHKDNIGSQYLLNWCVQIAKGMNYLEDRRLVHRDLAARNVLVKTPQHVKITDFGLAKLLGAEEKEYHAEGGKVPIKWMALESILHRIYTHQSDVWSYGVTVWELMTFGSKPYDGIPASEISSILEKGERLPQPPICTIDVYMIMVKCWMIDADSRPKFRELIIEFSKMARDPQRYLVIQGDERMHLPSPTDSNFYRALMDEEDMDDVVDADEYLIPQQGFFSSPSTSRTPLLSSLSATSNNSTVACIDRNGLQSCPIKEDSFLQRYSSDPTGALTEDSIDDTFLPVPEYINQSVPKRPAGSVQNPVYHNQPLNPAPSRDPHYQDPHSTAVGNPEYLNTVQPTCVNSTFDSPAHWAQKGSHQISLDNPDYQQDFFPKEAKPNGI

>  <PDB ID(s) of Target Chain>
1M14,1M17,1XKK,1Z9I,2GS2,2GS6,2ITW,2ITX,2ITY,2J5E,2J5F,2J6M,2RF9,2RGP,3BEL,3GOP,3POZ,3VJO,3W2O,3W2P,3W2Q,3W2R,3W2S,3W32,3W33,4G5J,4I23,4JQ7,4JQ8,4JR3,4JRV,4LI5,4RJ4,4RJ5,4RJ6,4RJ7,4RJ8,4TKS,4WKQ,4WRG,4ZAU,5C8K,5C8M,5C8N,5CAL,5CAN,5CAO,5CAP,5CAQ,5CAS,5CAU,5CAV,5EDP,5EDQ,5EDR,5EM5,5EM6,5EM7,5EM8,5GNK,5HCX,5HCY,5HCZ,5HIB,5HIC,5UGB,5Y25,6D8E,6JZ0,6S89,6S8A,6VH4,6VHN,6VHP,7AEI,7AEM,7B85,7OXB,7SI1,7UKV,7ZYM,7ZYN,7ZYP,8A27,8A2A,8HY7

>  <UniProt (SwissProt) Recommended Name of Target Chain>
Epidermal growth factor receptor

>  <UniProt (SwissProt) Entry Name of Target Chain>
EGFR_HUMAN

>  <UniProt (SwissProt) Primary ID of Target Chain>
P00533

>  <UniProt (SwissProt) Secondary ID(s) of Target Chain>
O00688 O00732 P06268 Q14225 Q68GS5 Q92795 Q9BZS2 Q9GZX1 Q9H2C9 Q9H3C9 Q9UMD7 Q9UMD8 Q9UMG5

>  <UniProt (SwissProt) Alternative ID(s) of Target Chain>


>  <UniProt (TrEMBL) Submitted Name of Target Chain>


>  <UniProt (TrEMBL) Entry Name of Target Chain>


>  <UniProt (TrEMBL) Primary ID of Target Chain>


>  <UniProt (TrEMBL) Secondary ID(s) of Target Chain>


>  <UniProt (TrEMBL) Alternative ID(s) of Target Chain>


$$$$
Untitled Document-1
 OpenBabel07052409033D

 30 31  0  0  0  0  0  0  0  0999 V2000
   -0.3563    0.0798    0.5071 C   0  0  0  0  0  0  0  0  0  0  0  0
    1.0727   -0.2023    0.2304 C   0  0  0  0  0  0  0  0  0  0  0  0
    2.0700    0.7390    0.5625 C   0  0  0  0  0  0  0  0  0  0  0  0
    3.4192    0.4506    0.3093 C   0  0  0  0  0  0  0  0  0  0  0  0
    3.7912   -0.7740   -0.2617 C   0  0  0  0  0  0  0  0  0  0  0  0
    2.8000   -1.7025   -0.6039 C   0  0  0  0  0  0  0  0  0  0  0  0
    1.4545   -1.4241   -0.3523 C   0  0  0  0  0  0  0  0  0  0  0  0
   -0.6669    0.6963    1.5626 O   0  0  0  0  0  0  0  0  0  0  0  0
   -1.3846   -0.3634   -0.3981 N   0  0  0  0  0  0  0  0  0  0  0  0
    5.2320   -1.0593   -0.5671 C   0  0  0  0  0  0  0  0  0  0  0  0
    1.7207    1.9661    1.1274 O   0  0  0  0  0  0  0  0  0  0  0  0
   -2.7776   -0.0395   -0.2507 C   0  0  0  0  0  0  0  0  0  0  0  0
   -3.7461   -0.9888   -0.6133 C   0  0  0  0  0  0  0  0  0  0  0  0
   -5.1075   -0.6896   -0.5024 C   0  0  0  0  0  0  0  0  0  0  0  0
   -5.5133    0.5666   -0.0439 C   0  0  0  0  0  0  0  0  0  0  0  0
   -4.5573    1.5277    0.2957 C   0  0  0  0  0  0  0  0  0  0  0  0
   -3.1947    1.2315    0.1870 C   0  0  0  0  0  0  0  0  0  0  0  0
   -6.8336    0.8566    0.0603 F   0  0  0  0  0  0  0  0  0  0  0  0
    4.1441    1.1461    0.5455 H   0  0  0  0  0  0  0  0  0  0  0  0
    3.0652   -2.5973   -1.0444 H   0  0  0  0  0  0  0  0  0  0  0  0
    0.7339   -2.1214   -0.5962 H   0  0  0  0  0  0  0  0  0  0  0  0
   -1.1178   -0.9217   -1.1639 H   0  0  0  0  0  0  0  0  0  0  0  0
    5.8359   -0.2410   -0.2346 H   0  0  0  0  0  0  0  0  0  0  0  0
    5.3544   -1.1872   -1.6224 H   0  0  0  0  0  0  0  0  0  0  0  0
    5.5334   -1.9532   -0.0622 H   0  0  0  0  0  0  0  0  0  0  0  0
    0.8210    2.1639    1.2986 H   0  0  0  0  0  0  0  0  0  0  0  0
   -3.4514   -1.9136   -0.9640 H   0  0  0  0  0  0  0  0  0  0  0  0
   -5.8134   -1.3972   -0.7594 H   0  0  0  0  0  0  0  0  0  0  0  0
   -4.8573    2.4578    0.6273 H   0  0  0  0  0  0  0  0  0  0  0  0
   -2.4922    1.9478    0.4287 H   0  0  0  0  0  0  0  0  0  0  0  0
  1  2  1  0  0  0  0
  1  8  2  0  0  0  0
  1  9  1  0  0  0  0
  2  3  2  0  0  0  0
  2  7  1  0  0  0  0
  3  4  1  0  0  0  0
  3 11  1  0  0  0  0
  4  5  2  0  0  0  0
  4 19  1  0  0  0  0
  5  6  1  0  0  0  0
  5 10  1  0  0  0  0
  6  7  2  0  0  0  0
  6 20  1  0  0  0  0
  7 21  1  0  0  0  0
  9 12  1  0  0  0  0
  9 22  1  0  0  0  0
 10 23  1  0  0  0  0
 10 24  1  0  0  0  0
 10 25  1  0  0  0  0
 11 26  1  0  0  0  0
 12 13  2  0  0  0  0
 12 17  1  0  0  0  0
 13 14  1  0  0  0  0
 13 27  1  0  0  0  0
 14 15  2  0  0  0  0
 14 28  1  0  0  0  0
 15 16  1  0  0  0  0
 15 18  1  0  0  0  0
 16 17  2  0  0  0  0
 16 29  1  0  0  0  0
 17 30  1  0  0  0  0
M  END
>  <From>
www.bindingDB.org

>  <BindingDB Reactant_set_id>
408358

>  <Ligand InChI>
InChI=1S/C14H12FNO2/c1-9-2-7-12(13(17)8-9)14(18)16-11-5-3-10(15)4-6-11/h2-8,17H,1H3,(H,16,18)

>  <Ligand InChI Key>
HDPUBNMJMVDMBW-UHFFFAOYSA-N

>  <BindingDB MonomerID>
234313

>  <BindingDB Ligand Name>
N-(4-fluorophenyl)-2-hydroxy-4-methylbenzamide (15)

>  <Target Name>
Epidermal growth factor receptor [645-1186]

>  <Target Source Organism According to Curator or DataSource>


>  <Ki (nM)>


>  <IC50 (nM)>
40170

>  <Kd (nM)>


>  <EC50 (nM)>


>  <kon (M-1-s-1)>


>  <koff (s-1)>


>  <pH>
7.4

>  <Temp C>
25.00

>  <Curation/DataSource>
Curated from the literature by BindingDB

>  <Article DOI>
10.3109/14756361003671060

>  <BindingDB Entry DOI>
10.7270/Q2XW4HPN

>  <PMID>
20583855

>  <PubChem AID>
aid1802974

>  <Patent Number>


>  <Authors>
Zhu, ZW; Shi, L; Ruan, XM; Yang, Y; Li, HQ; Xu, SP; Zhu, HL

>  <Institution>
Nanjing University

>  <Link to Ligand in BindingDB>
http://www.bindingdb.org/bind/chemsearch/marvin/MolStructure.jsp?monomerid=234313

>  <Link to Ligand-Target Pair in BindingDB>
http://www.bindingdb.org/jsp/dbsearch/PrimarySearch_ki.jsp?energyterm=kJ/mole&tag=r21&monomerid=234313&enzyme=Epidermal+growth+factor+receptor+%5B645-1186%5D&column=ki&startPg=0&Increment=50&submit=Search

>  <Ligand HET ID in PDB>


>  <PDB ID(s) for Ligand-Target Complex>


>  <PubChem CID of Ligand>
5274037

>  <PubChem SID of Ligand>
340094302

>  <ChEBI ID of Ligand>


>  <ChEMBL ID of Ligand>


>  <DrugBank ID of Ligand>


>  <IUPHAR_GRAC ID of Ligand>


>  <KEGG ID of Ligand>


>  <ZINC ID of Ligand>


>  <Number of Protein Chains in Target (bigger than 1 implies a multichain complex)>
1

>  <BindingDB Target Chain Sequence>
SIATGMVGALLLLLVVALGIGLFMRRRHIVRKRTLRRLLQERELVEPLTPSGEAPNQALLRILKETEFKKIKVLGSGAFGTVYKGLWIPEGEKVKIPVAIKELREATSPKANKEILDEAYVMASVDNPHVCRLLGICLTSTVQLITQLMPFGCLLDYVREHKDNIGSQYLLNWCVQIAKGMNYLEDRRLVHRDLAARNVLVKTPQHVKITDFGLAKLLGAEEKEYHAEGGKVPIKWMALESILHRIYTHQSDVWSYGVTVWELMTFGSKPYDGIPASEISSILEKGERLPQPPICTIDVYMIMVKCWMIDADSRPKFRELIIEFSKMARDPQRYLVIQGDERMHLPSPTDSNFYRALMDEEDMDDVVDADEYLIPQQGFFSSPSTSRTPLLSSLSATSNNSTVACIDRNGLQSCPIKEDSFLQRYSSDPTGALTEDSIDDTFLPVPEYINQSVPKRPAGSVQNPVYHNQPLNPAPSRDPHYQDPHSTAVGNPEYLNTVQPTCVNSTFDSPAHWAQKGSHQISLDNPDYQQDFFPKEAKPNGI

>  <PDB ID(s) of Target Chain>
1M14,1M17,1XKK,1Z9I,2GS2,2GS6,2ITW,2ITX,2ITY,2J5E,2J5F,2J6M,2RF9,2RGP,3BEL,3GOP,3POZ,3VJO,3W2O,3W2P,3W2Q,3W2R,3W2S,3W32,3W33,4G5J,4I23,4JQ7,4JQ8,4JR3,4JRV,4LI5,4RJ4,4RJ5,4RJ6,4RJ7,4RJ8,4TKS,4WKQ,4WRG,4ZAU,5C8K,5C8M,5C8N,5CAL,5CAN,5CAO,5CAP,5CAQ,5CAS,5CAU,5CAV,5EDP,5EDQ,5EDR,5EM5,5EM6,5EM7,5EM8,5GNK,5HCX,5HCY,5HCZ,5HIB,5HIC,5UGB,5Y25,6D8E,6JZ0,6S89,6S8A,6VH4,6VHN,6VHP,7AEI,7AEM,7B85,7OXB,7SI1,7UKV,7ZYM,7ZYN,7ZYP,8A27,8A2A,8HY7

>  <UniProt (SwissProt) Recommended Name of Target Chain>
Epidermal growth factor receptor

>  <UniProt (SwissProt) Entry Name of Target Chain>
EGFR_HUMAN

>  <UniProt (SwissProt) Primary ID of Target Chain>
P00533

>  <UniProt (SwissProt) Secondary ID(s) of Target Chain>
O00688 O00732 P06268 Q14225 Q68GS5 Q92795 Q9BZS2 Q9GZX1 Q9H2C9 Q9H3C9 Q9UMD7 Q9UMD8 Q9UMG5

>  <UniProt (SwissProt) Alternative ID(s) of Target Chain>


>  <UniProt (TrEMBL) Submitted Name of Target Chain>


>  <UniProt (TrEMBL) Entry Name of Target Chain>


>  <UniProt (TrEMBL) Primary ID of Target Chain>


>  <UniProt (TrEMBL) Secondary ID(s) of Target Chain>


>  <UniProt (TrEMBL) Alternative ID(s) of Target Chain>


$$$$
Untitled Document-1
 OpenBabel07052409033D

 27 28  0  0  0  0  0  0  0  0999 V2000
   -1.4265   -0.6024    0.0652 C   0  0  0  0  0  0  0  0  0  0  0  0
   -2.8267   -0.1370   -0.0325 C   0  0  0  0  0  0  0  0  0  0  0  0
   -3.2308    1.1107    0.4897 C   0  0  0  0  0  0  0  0  0  0  0  0
   -4.5669    1.5201    0.3616 C   0  0  0  0  0  0  0  0  0  0  0  0
   -5.5030    0.6901   -0.2588 C   0  0  0  0  0  0  0  0  0  0  0  0
   -5.1135   -0.5562   -0.7513 C   0  0  0  0  0  0  0  0  0  0  0  0
   -3.7844   -0.9712   -0.6353 C   0  0  0  0  0  0  0  0  0  0  0  0
   -1.2035   -1.7937    0.4130 O   0  0  0  0  0  0  0  0  0  0  0  0
   -0.3337    0.2842   -0.2362 N   0  0  0  0  0  0  0  0  0  0  0  0
   -2.3195    1.9278    1.1586 O   0  0  0  0  0  0  0  0  0  0  0  0
    1.0509   -0.0990   -0.1873 C   0  0  0  0  0  0  0  0  0  0  0  0
    2.0021    0.8231    0.2760 C   0  0  0  0  0  0  0  0  0  0  0  0
    3.3582    0.4846    0.3115 C   0  0  0  0  0  0  0  0  0  0  0  0
    3.7785   -0.7732   -0.1318 C   0  0  0  0  0  0  0  0  0  0  0  0
    2.8411   -1.6892   -0.6195 C   0  0  0  0  0  0  0  0  0  0  0  0
    1.4840   -1.3535   -0.6549 C   0  0  0  0  0  0  0  0  0  0  0  0
    5.4804   -1.1957   -0.0904 Cl  0  0  0  0  0  0  0  0  0  0  0  0
   -4.8593    2.4395    0.7279 H   0  0  0  0  0  0  0  0  0  0  0  0
   -6.4833    0.9985   -0.3531 H   0  0  0  0  0  0  0  0  0  0  0  0
   -5.8082   -1.1722   -1.2018 H   0  0  0  0  0  0  0  0  0  0  0  0
   -3.5036   -1.8969   -0.9948 H   0  0  0  0  0  0  0  0  0  0  0  0
   -0.5477    1.2106   -0.4917 H   0  0  0  0  0  0  0  0  0  0  0  0
   -1.4262    1.6590    1.2469 H   0  0  0  0  0  0  0  0  0  0  0  0
    1.6986    1.7573    0.5926 H   0  0  0  0  0  0  0  0  0  0  0  0
    4.0498    1.1639    0.6653 H   0  0  0  0  0  0  0  0  0  0  0  0
    3.1515   -2.6148   -0.9540 H   0  0  0  0  0  0  0  0  0  0  0  0
    0.7972   -2.0287   -1.0256 H   0  0  0  0  0  0  0  0  0  0  0  0
  1  2  1  0  0  0  0
  1  8  2  0  0  0  0
  1  9  1  0  0  0  0
  2  3  2  0  0  0  0
  2  7  1  0  0  0  0
  3  4  1  0  0  0  0
  3 10  1  0  0  0  0
  4  5  2  0  0  0  0
  4 18  1  0  0  0  0
  5  6  1  0  0  0  0
  5 19  1  0  0  0  0
  6  7  2  0  0  0  0
  6 20  1  0  0  0  0
  7 21  1  0  0  0  0
  9 11  1  0  0  0  0
  9 22  1  0  0  0  0
 10 23  1  0  0  0  0
 11 12  2  0  0  0  0
 11 16  1  0  0  0  0
 12 13  1  0  0  0  0
 12 24  1  0  0  0  0
 13 14  2  0  0  0  0
 13 25  1  0  0  0  0
 14 15  1  0  0  0  0
 14 17  1  0  0  0  0
 15 16  2  0  0  0  0
 15 26  1  0  0  0  0
 16 27  1  0  0  0  0
M  END
>  <From>
www.bindingDB.org

>  <BindingDB Reactant_set_id>
408349

>  <Ligand InChI>
InChI=1S/C13H10ClNO2/c14-9-5-7-10(8-6-9)15-13(17)11-3-1-2-4-12(11)16/h1-8,16H,(H,15,17)

>  <Ligand InChI Key>
BSNNYLFMWONSIV-UHFFFAOYSA-N

>  <BindingDB MonomerID>
234305

>  <BindingDB Ligand Name>
N-(4-chlorophenyl)-2-hydroxybenzamide (6)

>  <Target Name>
Epidermal growth factor receptor [645-1186]

>  <Target Source Organism According to Curator or DataSource>


>  <Ki (nM)>


>  <IC50 (nM)>
41760

>  <Kd (nM)>


>  <EC50 (nM)>


>  <kon (M-1-s-1)>


>  <koff (s-1)>


>  <pH>
7.4

>  <Temp C>
25.00

>  <Curation/DataSource>
Curated from the literature by BindingDB

>  <Article DOI>
10.3109/14756361003671060

>  <BindingDB Entry DOI>
10.7270/Q2XW4HPN

>  <PMID>
20583855

>  <PubChem AID>
aid1802974

>  <Patent Number>


>  <Authors>
Zhu, ZW; Shi, L; Ruan, XM; Yang, Y; Li, HQ; Xu, SP; Zhu, HL

>  <Institution>
Nanjing University

>  <Link to Ligand in BindingDB>
http://www.bindingdb.org/bind/chemsearch/marvin/MolStructure.jsp?monomerid=234305

>  <Link to Ligand-Target Pair in BindingDB>
http://www.bindingdb.org/jsp/dbsearch/PrimarySearch_ki.jsp?energyterm=kJ/mole&tag=r21&monomerid=234305&enzyme=Epidermal+growth+factor+receptor+%5B645-1186%5D&column=ki&startPg=0&Increment=50&submit=Search

>  <Ligand HET ID in PDB>


>  <PDB ID(s) for Ligand-Target Complex>


>  <PubChem CID of Ligand>
77253

>  <PubChem SID of Ligand>
340094294

>  <ChEBI ID of Ligand>


>  <ChEMBL ID of Ligand>


>  <DrugBank ID of Ligand>


>  <IUPHAR_GRAC ID of Ligand>


>  <KEGG ID of Ligand>


>  <ZINC ID of Ligand>


>  <Number of Protein Chains in Target (bigger than 1 implies a multichain complex)>
1

>  <BindingDB Target Chain Sequence>
SIATGMVGALLLLLVVALGIGLFMRRRHIVRKRTLRRLLQERELVEPLTPSGEAPNQALLRILKETEFKKIKVLGSGAFGTVYKGLWIPEGEKVKIPVAIKELREATSPKANKEILDEAYVMASVDNPHVCRLLGICLTSTVQLITQLMPFGCLLDYVREHKDNIGSQYLLNWCVQIAKGMNYLEDRRLVHRDLAARNVLVKTPQHVKITDFGLAKLLGAEEKEYHAEGGKVPIKWMALESILHRIYTHQSDVWSYGVTVWELMTFGSKPYDGIPASEISSILEKGERLPQPPICTIDVYMIMVKCWMIDADSRPKFRELIIEFSKMARDPQRYLVIQGDERMHLPSPTDSNFYRALMDEEDMDDVVDADEYLIPQQGFFSSPSTSRTPLLSSLSATSNNSTVACIDRNGLQSCPIKEDSFLQRYSSDPTGALTEDSIDDTFLPVPEYINQSVPKRPAGSVQNPVYHNQPLNPAPSRDPHYQDPHSTAVGNPEYLNTVQPTCVNSTFDSPAHWAQKGSHQISLDNPDYQQDFFPKEAKPNGI

>  <PDB ID(s) of Target Chain>
1M14,1M17,1XKK,1Z9I,2GS2,2GS6,2ITW,2ITX,2ITY,2J5E,2J5F,2J6M,2RF9,2RGP,3BEL,3GOP,3POZ,3VJO,3W2O,3W2P,3W2Q,3W2R,3W2S,3W32,3W33,4G5J,4I23,4JQ7,4JQ8,4JR3,4JRV,4LI5,4RJ4,4RJ5,4RJ6,4RJ7,4RJ8,4TKS,4WKQ,4WRG,4ZAU,5C8K,5C8M,5C8N,5CAL,5CAN,5CAO,5CAP,5CAQ,5CAS,5CAU,5CAV,5EDP,5EDQ,5EDR,5EM5,5EM6,5EM7,5EM8,5GNK,5HCX,5HCY,5HCZ,5HIB,5HIC,5UGB,5Y25,6D8E,6JZ0,6S89,6S8A,6VH4,6VHN,6VHP,7AEI,7AEM,7B85,7OXB,7SI1,7UKV,7ZYM,7ZYN,7ZYP,8A27,8A2A,8HY7

>  <UniProt (SwissProt) Recommended Name of Target Chain>
Epidermal growth factor receptor

>  <UniProt (SwissProt) Entry Name of Target Chain>
EGFR_HUMAN

>  <UniProt (SwissProt) Primary ID of Target Chain>
P00533

>  <UniProt (SwissProt) Secondary ID(s) of Target Chain>
O00688 O00732 P06268 Q14225 Q68GS5 Q92795 Q9BZS2 Q9GZX1 Q9H2C9 Q9H3C9 Q9UMD7 Q9UMD8 Q9UMG5

>  <UniProt (SwissProt) Alternative ID(s) of Target Chain>


>  <UniProt (TrEMBL) Submitted Name of Target Chain>


>  <UniProt (TrEMBL) Entry Name of Target Chain>


>  <UniProt (TrEMBL) Primary ID of Target Chain>


>  <UniProt (TrEMBL) Secondary ID(s) of Target Chain>


>  <UniProt (TrEMBL) Alternative ID(s) of Target Chain>


$$$$
Untitled Document-1
 OpenBabel07052409033D

 27 28  0  0  0  0  0  0  0  0999 V2000
   -1.4120   -0.6077   -0.1472 C   0  0  0  0  0  0  0  0  0  0  0  0
   -2.8100   -0.1360   -0.2368 C   0  0  0  0  0  0  0  0  0  0  0  0
   -3.7587   -0.7658   -1.0796 C   0  0  0  0  0  0  0  0  0  0  0  0
   -5.0878   -0.3243   -1.0783 C   0  0  0  0  0  0  0  0  0  0  0  0
   -5.4794    0.7456   -0.2715 C   0  0  0  0  0  0  0  0  0  0  0  0
   -4.5450    1.3822    0.5454 C   0  0  0  0  0  0  0  0  0  0  0  0
   -3.2187    0.9447    0.5654 C   0  0  0  0  0  0  0  0  0  0  0  0
   -1.1831   -1.8390    0.0011 O   0  0  0  0  0  0  0  0  0  0  0  0
   -0.3254    0.3338   -0.1645 N   0  0  0  0  0  0  0  0  0  0  0  0
   -3.4131   -1.8065   -1.9444 O   0  0  0  0  0  0  0  0  0  0  0  0
    1.0597   -0.0530   -0.1738 C   0  0  0  0  0  0  0  0  0  0  0  0
    2.0032    0.6662    0.5873 C   0  0  0  0  0  0  0  0  0  0  0  0
    3.3551    0.3034    0.5531 C   0  0  0  0  0  0  0  0  0  0  0  0
    3.7790   -0.7638   -0.2439 C   0  0  0  0  0  0  0  0  0  0  0  0
    2.8517   -1.4698   -1.0142 C   0  0  0  0  0  0  0  0  0  0  0  0
    1.5006   -1.1147   -0.9847 C   0  0  0  0  0  0  0  0  0  0  0  0
    5.4748   -1.2109   -0.2834 Cl  0  0  0  0  0  0  0  0  0  0  0  0
    1.5136    2.0026    1.6213 Cl  0  0  0  0  0  0  0  0  0  0  0  0
   -5.7835   -0.7938   -1.6788 H   0  0  0  0  0  0  0  0  0  0  0  0
   -6.4605    1.0656   -0.2795 H   0  0  0  0  0  0  0  0  0  0  0  0
   -4.8341    2.1777    1.1359 H   0  0  0  0  0  0  0  0  0  0  0  0
   -2.5328    1.4183    1.1739 H   0  0  0  0  0  0  0  0  0  0  0  0
   -0.5411    1.2944   -0.1703 H   0  0  0  0  0  0  0  0  0  0  0  0
   -2.5316   -2.1232   -1.9676 H   0  0  0  0  0  0  0  0  0  0  0  0
    4.0417    0.8263    1.1189 H   0  0  0  0  0  0  0  0  0  0  0  0
    3.1651   -2.2550   -1.6061 H   0  0  0  0  0  0  0  0  0  0  0  0
    0.8214   -1.6349   -1.5618 H   0  0  0  0  0  0  0  0  0  0  0  0
  1  2  1  0  0  0  0
  1  8  2  0  0  0  0
  1  9  1  0  0  0  0
  2  3  2  0  0  0  0
  2  7  1  0  0  0  0
  3  4  1  0  0  0  0
  3 10  1  0  0  0  0
  4  5  2  0  0  0  0
  4 19  1  0  0  0  0
  5  6  1  0  0  0  0
  5 20  1  0  0  0  0
  6  7  2  0  0  0  0
  6 21  1  0  0  0  0
  7 22  1  0  0  0  0
  9 11  1  0  0  0  0
  9 23  1  0  0  0  0
 10 24  1  0  0  0  0
 11 12  2  0  0  0  0
 11 16  1  0  0  0  0
 12 13  1  0  0  0  0
 12 18  1  0  0  0  0
 13 14  2  0  0  0  0
 13 25  1  0  0  0  0
 14 15  1  0  0  0  0
 14 17  1  0  0  0  0
 15 16  2  0  0  0  0
 15 26  1  0  0  0  0
 16 27  1  0  0  0  0
M  END
>  <From>
www.bindingDB.org

>  <BindingDB Reactant_set_id>
408352

>  <Ligand InChI>
InChI=1S/C13H9Cl2NO2/c14-8-5-6-11(10(15)7-8)16-13(18)9-3-1-2-4-12(9)17/h1-7,17H,(H,16,18)

>  <Ligand InChI Key>
GFUKRQFBTHGSIC-UHFFFAOYSA-N

>  <BindingDB MonomerID>
234308

>  <BindingDB Ligand Name>
N-(2,4-dichlorophenyl)-2-hydroxybenzamide (9)

>  <Target Name>
Epidermal growth factor receptor [645-1186]

>  <Target Source Organism According to Curator or DataSource>


>  <Ki (nM)>


>  <IC50 (nM)>
45290

>  <Kd (nM)>


>  <EC50 (nM)>


>  <kon (M-1-s-1)>


>  <koff (s-1)>


>  <pH>
7.4

>  <Temp C>
25.00

>  <Curation/DataSource>
Curated from the literature by BindingDB

>  <Article DOI>
10.3109/14756361003671060

>  <BindingDB Entry DOI>
10.7270/Q2XW4HPN

>  <PMID>
20583855

>  <PubChem AID>
aid1802974

>  <Patent Number>


>  <Authors>
Zhu, ZW; Shi, L; Ruan, XM; Yang, Y; Li, HQ; Xu, SP; Zhu, HL

>  <Institution>
Nanjing University

>  <Link to Ligand in BindingDB>
http://www.bindingdb.org/bind/chemsearch/marvin/MolStructure.jsp?monomerid=234308

>  <Link to Ligand-Target Pair in BindingDB>
http://www.bindingdb.org/jsp/dbsearch/PrimarySearch_ki.jsp?energyterm=kJ/mole&tag=r21&monomerid=234308&enzyme=Epidermal+growth+factor+receptor+%5B645-1186%5D&column=ki&startPg=0&Increment=50&submit=Search

>  <Ligand HET ID in PDB>


>  <PDB ID(s) for Ligand-Target Complex>


>  <PubChem CID of Ligand>
11837097

>  <PubChem SID of Ligand>
340094297

>  <ChEBI ID of Ligand>


>  <ChEMBL ID of Ligand>


>  <DrugBank ID of Ligand>


>  <IUPHAR_GRAC ID of Ligand>


>  <KEGG ID of Ligand>


>  <ZINC ID of Ligand>


>  <Number of Protein Chains in Target (bigger than 1 implies a multichain complex)>
1

>  <BindingDB Target Chain Sequence>
SIATGMVGALLLLLVVALGIGLFMRRRHIVRKRTLRRLLQERELVEPLTPSGEAPNQALLRILKETEFKKIKVLGSGAFGTVYKGLWIPEGEKVKIPVAIKELREATSPKANKEILDEAYVMASVDNPHVCRLLGICLTSTVQLITQLMPFGCLLDYVREHKDNIGSQYLLNWCVQIAKGMNYLEDRRLVHRDLAARNVLVKTPQHVKITDFGLAKLLGAEEKEYHAEGGKVPIKWMALESILHRIYTHQSDVWSYGVTVWELMTFGSKPYDGIPASEISSILEKGERLPQPPICTIDVYMIMVKCWMIDADSRPKFRELIIEFSKMARDPQRYLVIQGDERMHLPSPTDSNFYRALMDEEDMDDVVDADEYLIPQQGFFSSPSTSRTPLLSSLSATSNNSTVACIDRNGLQSCPIKEDSFLQRYSSDPTGALTEDSIDDTFLPVPEYINQSVPKRPAGSVQNPVYHNQPLNPAPSRDPHYQDPHSTAVGNPEYLNTVQPTCVNSTFDSPAHWAQKGSHQISLDNPDYQQDFFPKEAKPNGI

>  <PDB ID(s) of Target Chain>
1M14,1M17,1XKK,1Z9I,2GS2,2GS6,2ITW,2ITX,2ITY,2J5E,2J5F,2J6M,2RF9,2RGP,3BEL,3GOP,3POZ,3VJO,3W2O,3W2P,3W2Q,3W2R,3W2S,3W32,3W33,4G5J,4I23,4JQ7,4JQ8,4JR3,4JRV,4LI5,4RJ4,4RJ5,4RJ6,4RJ7,4RJ8,4TKS,4WKQ,4WRG,4ZAU,5C8K,5C8M,5C8N,5CAL,5CAN,5CAO,5CAP,5CAQ,5CAS,5CAU,5CAV,5EDP,5EDQ,5EDR,5EM5,5EM6,5EM7,5EM8,5GNK,5HCX,5HCY,5HCZ,5HIB,5HIC,5UGB,5Y25,6D8E,6JZ0,6S89,6S8A,6VH4,6VHN,6VHP,7AEI,7AEM,7B85,7OXB,7SI1,7UKV,7ZYM,7ZYN,7ZYP,8A27,8A2A,8HY7

>  <UniProt (SwissProt) Recommended Name of Target Chain>
Epidermal growth factor receptor

>  <UniProt (SwissProt) Entry Name of Target Chain>
EGFR_HUMAN

>  <UniProt (SwissProt) Primary ID of Target Chain>
P00533

>  <UniProt (SwissProt) Secondary ID(s) of Target Chain>
O00688 O00732 P06268 Q14225 Q68GS5 Q92795 Q9BZS2 Q9GZX1 Q9H2C9 Q9H3C9 Q9UMD7 Q9UMD8 Q9UMG5

>  <UniProt (SwissProt) Alternative ID(s) of Target Chain>


>  <UniProt (TrEMBL) Submitted Name of Target Chain>


>  <UniProt (TrEMBL) Entry Name of Target Chain>


>  <UniProt (TrEMBL) Primary ID of Target Chain>


>  <UniProt (TrEMBL) Secondary ID(s) of Target Chain>


>  <UniProt (TrEMBL) Alternative ID(s) of Target Chain>


$$$$
Untitled Document-1
 OpenBabel07052409033D

 27 28  0  0  0  0  0  0  0  0999 V2000
   -1.3828   -0.4344   -0.5504 C   0  0  0  0  0  0  0  0  0  0  0  0
   -2.8032   -0.1064   -0.2793 C   0  0  0  0  0  0  0  0  0  0  0  0
   -3.8087   -1.0888   -0.4155 C   0  0  0  0  0  0  0  0  0  0  0  0
   -5.1495   -0.7570   -0.1698 C   0  0  0  0  0  0  0  0  0  0  0  0
   -5.4970    0.5407    0.2091 C   0  0  0  0  0  0  0  0  0  0  0  0
   -4.5095    1.5174    0.3404 C   0  0  0  0  0  0  0  0  0  0  0  0
   -3.1709    1.1995    0.0960 C   0  0  0  0  0  0  0  0  0  0  0  0
   -1.1045   -1.2263   -1.4917 O   0  0  0  0  0  0  0  0  0  0  0  0
   -0.3270    0.1593    0.2281 N   0  0  0  0  0  0  0  0  0  0  0  0
    1.0618   -0.1873    0.0931 C   0  0  0  0  0  0  0  0  0  0  0  0
    1.4700   -1.5160   -0.1292 C   0  0  0  0  0  0  0  0  0  0  0  0
    2.8295   -1.8282   -0.2299 C   0  0  0  0  0  0  0  0  0  0  0  0
    3.7914   -0.8238   -0.0959 C   0  0  0  0  0  0  0  0  0  0  0  0
    3.3958    0.4935    0.1490 C   0  0  0  0  0  0  0  0  0  0  0  0
    2.0375    0.8096    0.2514 C   0  0  0  0  0  0  0  0  0  0  0  0
   -3.4756   -2.3940   -0.7790 O   0  0  0  0  0  0  0  0  0  0  0  0
   -5.8828   -1.4762   -0.2697 H   0  0  0  0  0  0  0  0  0  0  0  0
   -6.4846    0.7777    0.3921 H   0  0  0  0  0  0  0  0  0  0  0  0
   -4.7682    2.4769    0.6187 H   0  0  0  0  0  0  0  0  0  0  0  0
   -2.4461    1.9279    0.1914 H   0  0  0  0  0  0  0  0  0  0  0  0
   -0.5707    0.8436    0.8927 H   0  0  0  0  0  0  0  0  0  0  0  0
    0.7632   -2.2627   -0.2182 H   0  0  0  0  0  0  0  0  0  0  0  0
    3.1228   -2.8023   -0.4035 H   0  0  0  0  0  0  0  0  0  0  0  0
    4.7938   -1.0549   -0.1778 H   0  0  0  0  0  0  0  0  0  0  0  0
    4.1068    1.2341    0.2544 H   0  0  0  0  0  0  0  0  0  0  0  0
    1.7505    1.7819    0.4446 H   0  0  0  0  0  0  0  0  0  0  0  0
   -2.5816   -2.6206   -0.9442 H   0  0  0  0  0  0  0  0  0  0  0  0
  1  2  1  0  0  0  0
  1  8  2  0  0  0  0
  1  9  1  0  0  0  0
  2  3  2  0  0  0  0
  2  7  1  0  0  0  0
  3  4  1  0  0  0  0
  3 16  1  0  0  0  0
  4  5  2  0  0  0  0
  4 17  1  0  0  0  0
  5  6  1  0  0  0  0
  5 18  1  0  0  0  0
  6  7  2  0  0  0  0
  6 19  1  0  0  0  0
  7 20  1  0  0  0  0
  9 10  1  0  0  0  0
  9 21  1  0  0  0  0
 10 11  2  0  0  0  0
 10 15  1  0  0  0  0
 11 12  1  0  0  0  0
 11 22  1  0  0  0  0
 12 13  2  0  0  0  0
 12 23  1  0  0  0  0
 13 14  1  0  0  0  0
 13 24  1  0  0  0  0
 14 15  2  0  0  0  0
 14 25  1  0  0  0  0
 15 26  1  0  0  0  0
 16 27  1  0  0  0  0
M  END
>  <From>
www.bindingDB.org

>  <BindingDB Reactant_set_id>
408344

>  <Ligand InChI>
InChI=1S/C13H11NO2/c15-12-9-5-4-8-11(12)13(16)14-10-6-2-1-3-7-10/h1-9,15H,(H,14,16)

>  <Ligand InChI Key>
WKEDVNSFRWHDNR-UHFFFAOYSA-N

>  <BindingDB MonomerID>
234300

>  <BindingDB Ligand Name>
2-Hydroxy-N-phenylbenzamide (1)

>  <Target Name>
Epidermal growth factor receptor [645-1186]

>  <Target Source Organism According to Curator or DataSource>


>  <Ki (nM)>


>  <IC50 (nM)>
50000

>  <Kd (nM)>


>  <EC50 (nM)>


>  <kon (M-1-s-1)>


>  <koff (s-1)>


>  <pH>
7.4

>  <Temp C>
25.00

>  <Curation/DataSource>
Curated from the literature by BindingDB

>  <Article DOI>
10.3109/14756361003671060

>  <BindingDB Entry DOI>
10.7270/Q2XW4HPN

>  <PMID>
20583855

>  <PubChem AID>
aid1802974

>  <Patent Number>


>  <Authors>
Zhu, ZW; Shi, L; Ruan, XM; Yang, Y; Li, HQ; Xu, SP; Zhu, HL

>  <Institution>
Nanjing University

>  <Link to Ligand in BindingDB>
http://www.bindingdb.org/bind/chemsearch/marvin/MolStructure.jsp?monomerid=234300

>  <Link to Ligand-Target Pair in BindingDB>
http://www.bindingdb.org/jsp/dbsearch/PrimarySearch_ki.jsp?energyterm=kJ/mole&tag=r21&monomerid=234300&enzyme=Epidermal+growth+factor+receptor+%5B645-1186%5D&column=ki&startPg=0&Increment=50&submit=Search

>  <Ligand HET ID in PDB>
SLI

>  <PDB ID(s) for Ligand-Target Complex>
3AE2

>  <PubChem CID of Ligand>
6872

>  <PubChem SID of Ligand>
340094289

>  <ChEBI ID of Ligand>


>  <ChEMBL ID of Ligand>


>  <DrugBank ID of Ligand>


>  <IUPHAR_GRAC ID of Ligand>


>  <KEGG ID of Ligand>
C18915

>  <ZINC ID of Ligand>


>  <Number of Protein Chains in Target (bigger than 1 implies a multichain complex)>
1

>  <BindingDB Target Chain Sequence>
SIATGMVGALLLLLVVALGIGLFMRRRHIVRKRTLRRLLQERELVEPLTPSGEAPNQALLRILKETEFKKIKVLGSGAFGTVYKGLWIPEGEKVKIPVAIKELREATSPKANKEILDEAYVMASVDNPHVCRLLGICLTSTVQLITQLMPFGCLLDYVREHKDNIGSQYLLNWCVQIAKGMNYLEDRRLVHRDLAARNVLVKTPQHVKITDFGLAKLLGAEEKEYHAEGGKVPIKWMALESILHRIYTHQSDVWSYGVTVWELMTFGSKPYDGIPASEISSILEKGERLPQPPICTIDVYMIMVKCWMIDADSRPKFRELIIEFSKMARDPQRYLVIQGDERMHLPSPTDSNFYRALMDEEDMDDVVDADEYLIPQQGFFSSPSTSRTPLLSSLSATSNNSTVACIDRNGLQSCPIKEDSFLQRYSSDPTGALTEDSIDDTFLPVPEYINQSVPKRPAGSVQNPVYHNQPLNPAPSRDPHYQDPHSTAVGNPEYLNTVQPTCVNSTFDSPAHWAQKGSHQISLDNPDYQQDFFPKEAKPNGI

>  <PDB ID(s) of Target Chain>
1M14,1M17,1XKK,1Z9I,2GS2,2GS6,2ITW,2ITX,2ITY,2J5E,2J5F,2J6M,2RF9,2RGP,3BEL,3GOP,3POZ,3VJO,3W2O,3W2P,3W2Q,3W2R,3W2S,3W32,3W33,4G5J,4I23,4JQ7,4JQ8,4JR3,4JRV,4LI5,4RJ4,4RJ5,4RJ6,4RJ7,4RJ8,4TKS,4WKQ,4WRG,4ZAU,5C8K,5C8M,5C8N,5CAL,5CAN,5CAO,5CAP,5CAQ,5CAS,5CAU,5CAV,5EDP,5EDQ,5EDR,5EM5,5EM6,5EM7,5EM8,5GNK,5HCX,5HCY,5HCZ,5HIB,5HIC,5UGB,5Y25,6D8E,6JZ0,6S89,6S8A,6VH4,6VHN,6VHP,7AEI,7AEM,7B85,7OXB,7SI1,7UKV,7ZYM,7ZYN,7ZYP,8A27,8A2A,8HY7

>  <UniProt (SwissProt) Recommended Name of Target Chain>
Epidermal growth factor receptor

>  <UniProt (SwissProt) Entry Name of Target Chain>
EGFR_HUMAN

>  <UniProt (SwissProt) Primary ID of Target Chain>
P00533

>  <UniProt (SwissProt) Secondary ID(s) of Target Chain>
O00688 O00732 P06268 Q14225 Q68GS5 Q92795 Q9BZS2 Q9GZX1 Q9H2C9 Q9H3C9 Q9UMD7 Q9UMD8 Q9UMG5

>  <UniProt (SwissProt) Alternative ID(s) of Target Chain>


>  <UniProt (TrEMBL) Submitted Name of Target Chain>


>  <UniProt (TrEMBL) Entry Name of Target Chain>


>  <UniProt (TrEMBL) Primary ID of Target Chain>


>  <UniProt (TrEMBL) Secondary ID(s) of Target Chain>


>  <UniProt (TrEMBL) Alternative ID(s) of Target Chain>


$$$$
Untitled Document-1
 OpenBabel07052409033D

 27 28  0  0  0  0  0  0  0  0999 V2000
   -1.4065   -0.5664   -0.1929 C   0  0  0  0  0  0  0  0  0  0  0  0
   -2.8004   -0.0761   -0.2508 C   0  0  0  0  0  0  0  0  0  0  0  0
   -3.2186    1.0555    0.4822 C   0  0  0  0  0  0  0  0  0  0  0  0
   -4.5475    1.4959    0.3863 C   0  0  0  0  0  0  0  0  0  0  0  0
   -5.4634    0.8072   -0.4118 C   0  0  0  0  0  0  0  0  0  0  0  0
   -5.0609   -0.3285   -1.1159 C   0  0  0  0  0  0  0  0  0  0  0  0
   -3.7385   -0.7719   -1.0331 C   0  0  0  0  0  0  0  0  0  0  0  0
   -1.2009   -1.8042   -0.0677 O   0  0  0  0  0  0  0  0  0  0  0  0
   -0.3000    0.3494   -0.2834 N   0  0  0  0  0  0  0  0  0  0  0  0
   -2.3294    1.7227    1.3247 O   0  0  0  0  0  0  0  0  0  0  0  0
    1.0804   -0.0508   -0.2588 C   0  0  0  0  0  0  0  0  0  0  0  0
    1.5256   -1.2001   -0.9383 C   0  0  0  0  0  0  0  0  0  0  0  0
    2.8795   -1.5504   -0.9187 C   0  0  0  0  0  0  0  0  0  0  0  0
    3.8009   -0.7519   -0.2355 C   0  0  0  0  0  0  0  0  0  0  0  0
    3.3705    0.4042    0.4209 C   0  0  0  0  0  0  0  0  0  0  0  0
    2.0178    0.7580    0.4025 C   0  0  0  0  0  0  0  0  0  0  0  0
    5.1131   -1.0923   -0.2197 F   0  0  0  0  0  0  0  0  0  0  0  0
   -4.8496    2.3333    0.9084 H   0  0  0  0  0  0  0  0  0  0  0  0
   -6.4384    1.1383   -0.4810 H   0  0  0  0  0  0  0  0  0  0  0  0
   -5.7409   -0.8415   -1.6985 H   0  0  0  0  0  0  0  0  0  0  0  0
   -3.4483   -1.6166   -1.5501 H   0  0  0  0  0  0  0  0  0  0  0  0
   -0.5010    1.3095   -0.3674 H   0  0  0  0  0  0  0  0  0  0  0  0
   -1.4410    1.4327    1.3924 H   0  0  0  0  0  0  0  0  0  0  0  0
    0.8504   -1.7867   -1.4531 H   0  0  0  0  0  0  0  0  0  0  0  0
    3.1988   -2.4001   -1.4097 H   0  0  0  0  0  0  0  0  0  0  0  0
    4.0517    0.9976    0.9198 H   0  0  0  0  0  0  0  0  0  0  0  0
    1.7067    1.6193    0.8782 H   0  0  0  0  0  0  0  0  0  0  0  0
  1  2  1  0  0  0  0
  1  8  2  0  0  0  0
  1  9  1  0  0  0  0
  2  3  2  0  0  0  0
  2  7  1  0  0  0  0
  3  4  1  0  0  0  0
  3 10  1  0  0  0  0
  4  5  2  0  0  0  0
  4 18  1  0  0  0  0
  5  6  1  0  0  0  0
  5 19  1  0  0  0  0
  6  7  2  0  0  0  0
  6 20  1  0  0  0  0
  7 21  1  0  0  0  0
  9 11  1  0  0  0  0
  9 22  1  0  0  0  0
 10 23  1  0  0  0  0
 11 12  2  0  0  0  0
 11 16  1  0  0  0  0
 12 13  1  0  0  0  0
 12 24  1  0  0  0  0
 13 14  2  0  0  0  0
 13 25  1  0  0  0  0
 14 15  1  0  0  0  0
 14 17  1  0  0  0  0
 15 16  2  0  0  0  0
 15 26  1  0  0  0  0
 16 27  1  0  0  0  0
M  END
>  <From>
www.bindingDB.org

>  <BindingDB Reactant_set_id>
408348

>  <Ligand InChI>
InChI=1S/C13H10FNO2/c14-9-5-7-10(8-6-9)15-13(17)11-3-1-2-4-12(11)16/h1-8,16H,(H,15,17)

>  <Ligand InChI Key>
JRFWTJJEUHYSHV-UHFFFAOYSA-N

>  <BindingDB MonomerID>
234304

>  <BindingDB Ligand Name>
N-(4-fluorophenyl)-2-hydroxybenzamide (5)

>  <Target Name>
Epidermal growth factor receptor [645-1186]

>  <Target Source Organism According to Curator or DataSource>


>  <Ki (nM)>


>  <IC50 (nM)>
50000

>  <Kd (nM)>


>  <EC50 (nM)>


>  <kon (M-1-s-1)>


>  <koff (s-1)>


>  <pH>
7.4

>  <Temp C>
25.00

>  <Curation/DataSource>
Curated from the literature by BindingDB

>  <Article DOI>
10.3109/14756361003671060

>  <BindingDB Entry DOI>
10.7270/Q2XW4HPN

>  <PMID>
20583855

>  <PubChem AID>
aid1802974

>  <Patent Number>


>  <Authors>
Zhu, ZW; Shi, L; Ruan, XM; Yang, Y; Li, HQ; Xu, SP; Zhu, HL

>  <Institution>
Nanjing University

>  <Link to Ligand in BindingDB>
http://www.bindingdb.org/bind/chemsearch/marvin/MolStructure.jsp?monomerid=234304

>  <Link to Ligand-Target Pair in BindingDB>
http://www.bindingdb.org/jsp/dbsearch/PrimarySearch_ki.jsp?energyterm=kJ/mole&tag=r21&monomerid=234304&enzyme=Epidermal+growth+factor+receptor+%5B645-1186%5D&column=ki&startPg=0&Increment=50&submit=Search

>  <Ligand HET ID in PDB>


>  <PDB ID(s) for Ligand-Target Complex>


>  <PubChem CID of Ligand>
478809

>  <PubChem SID of Ligand>
340094293

>  <ChEBI ID of Ligand>


>  <ChEMBL ID of Ligand>


>  <DrugBank ID of Ligand>


>  <IUPHAR_GRAC ID of Ligand>


>  <KEGG ID of Ligand>


>  <ZINC ID of Ligand>


>  <Number of Protein Chains in Target (bigger than 1 implies a multichain complex)>
1

>  <BindingDB Target Chain Sequence>
SIATGMVGALLLLLVVALGIGLFMRRRHIVRKRTLRRLLQERELVEPLTPSGEAPNQALLRILKETEFKKIKVLGSGAFGTVYKGLWIPEGEKVKIPVAIKELREATSPKANKEILDEAYVMASVDNPHVCRLLGICLTSTVQLITQLMPFGCLLDYVREHKDNIGSQYLLNWCVQIAKGMNYLEDRRLVHRDLAARNVLVKTPQHVKITDFGLAKLLGAEEKEYHAEGGKVPIKWMALESILHRIYTHQSDVWSYGVTVWELMTFGSKPYDGIPASEISSILEKGERLPQPPICTIDVYMIMVKCWMIDADSRPKFRELIIEFSKMARDPQRYLVIQGDERMHLPSPTDSNFYRALMDEEDMDDVVDADEYLIPQQGFFSSPSTSRTPLLSSLSATSNNSTVACIDRNGLQSCPIKEDSFLQRYSSDPTGALTEDSIDDTFLPVPEYINQSVPKRPAGSVQNPVYHNQPLNPAPSRDPHYQDPHSTAVGNPEYLNTVQPTCVNSTFDSPAHWAQKGSHQISLDNPDYQQDFFPKEAKPNGI

>  <PDB ID(s) of Target Chain>
1M14,1M17,1XKK,1Z9I,2GS2,2GS6,2ITW,2ITX,2ITY,2J5E,2J5F,2J6M,2RF9,2RGP,3BEL,3GOP,3POZ,3VJO,3W2O,3W2P,3W2Q,3W2R,3W2S,3W32,3W33,4G5J,4I23,4JQ7,4JQ8,4JR3,4JRV,4LI5,4RJ4,4RJ5,4RJ6,4RJ7,4RJ8,4TKS,4WKQ,4WRG,4ZAU,5C8K,5C8M,5C8N,5CAL,5CAN,5CAO,5CAP,5CAQ,5CAS,5CAU,5CAV,5EDP,5EDQ,5EDR,5EM5,5EM6,5EM7,5EM8,5GNK,5HCX,5HCY,5HCZ,5HIB,5HIC,5UGB,5Y25,6D8E,6JZ0,6S89,6S8A,6VH4,6VHN,6VHP,7AEI,7AEM,7B85,7OXB,7SI1,7UKV,7ZYM,7ZYN,7ZYP,8A27,8A2A,8HY7

>  <UniProt (SwissProt) Recommended Name of Target Chain>
Epidermal growth factor receptor

>  <UniProt (SwissProt) Entry Name of Target Chain>
EGFR_HUMAN

>  <UniProt (SwissProt) Primary ID of Target Chain>
P00533

>  <UniProt (SwissProt) Secondary ID(s) of Target Chain>
O00688 O00732 P06268 Q14225 Q68GS5 Q92795 Q9BZS2 Q9GZX1 Q9H2C9 Q9H3C9 Q9UMD7 Q9UMD8 Q9UMG5

>  <UniProt (SwissProt) Alternative ID(s) of Target Chain>


>  <UniProt (TrEMBL) Submitted Name of Target Chain>


>  <UniProt (TrEMBL) Entry Name of Target Chain>


>  <UniProt (TrEMBL) Primary ID of Target Chain>


>  <UniProt (TrEMBL) Secondary ID(s) of Target Chain>


>  <UniProt (TrEMBL) Alternative ID(s) of Target Chain>


$$$$
Untitled Document-1
 OpenBabel07052409033D

 27 28  0  0  0  0  0  0  0  0999 V2000
   -1.4120   -0.5717   -0.1749 C   0  0  0  0  0  0  0  0  0  0  0  0
   -2.8098   -0.0927   -0.2333 C   0  0  0  0  0  0  0  0  0  0  0  0
   -3.2274    1.0560    0.4742 C   0  0  0  0  0  0  0  0  0  0  0  0
   -4.5672    1.4876    0.3730 C   0  0  0  0  0  0  0  0  0  0  0  0
   -5.4776    0.7639   -0.4036 C   0  0  0  0  0  0  0  0  0  0  0  0
   -5.0707   -0.3883   -1.0775 C   0  0  0  0  0  0  0  0  0  0  0  0
   -3.7451   -0.8173   -0.9896 C   0  0  0  0  0  0  0  0  0  0  0  0
   -1.1960   -1.8012    0.0028 O   0  0  0  0  0  0  0  0  0  0  0  0
   -0.3137    0.3462   -0.3244 N   0  0  0  0  0  0  0  0  0  0  0  0
   -2.3148    1.7322    1.2880 O   0  0  0  0  0  0  0  0  0  0  0  0
    1.0697   -0.0435   -0.3057 C   0  0  0  0  0  0  0  0  0  0  0  0
    2.0123    0.8003    0.3024 C   0  0  0  0  0  0  0  0  0  0  0  0
    3.3676    0.4565    0.3133 C   0  0  0  0  0  0  0  0  0  0  0  0
    3.7951   -0.7252   -0.2979 C   0  0  0  0  0  0  0  0  0  0  0  0
    2.8681   -1.5595   -0.9286 C   0  0  0  0  0  0  0  0  0  0  0  0
    1.5116   -1.2193   -0.9405 C   0  0  0  0  0  0  0  0  0  0  0  0
    5.1099   -1.0561   -0.2895 F   0  0  0  0  0  0  0  0  0  0  0  0
   -6.3264   -1.3748   -2.1255 Br  0  0  0  0  0  0  0  0  0  0  0  0
   -5.2048    3.0473    1.2868 Br  0  0  0  0  0  0  0  0  0  0  0  0
   -6.4559    1.0838   -0.4787 H   0  0  0  0  0  0  0  0  0  0  0  0
   -3.4503   -1.6737   -1.4843 H   0  0  0  0  0  0  0  0  0  0  0  0
   -0.5229    1.3004   -0.4471 H   0  0  0  0  0  0  0  0  0  0  0  0
   -1.4282    1.4344    1.3456 H   0  0  0  0  0  0  0  0  0  0  0  0
    1.7030    1.6801    0.7443 H   0  0  0  0  0  0  0  0  0  0  0  0
    4.0529    1.0761    0.7732 H   0  0  0  0  0  0  0  0  0  0  0  0
    3.1852   -2.4283   -1.3865 H   0  0  0  0  0  0  0  0  0  0  0  0
    0.8320   -1.8329   -1.4166 H   0  0  0  0  0  0  0  0  0  0  0  0
  1  2  1  0  0  0  0
  1  8  2  0  0  0  0
  1  9  1  0  0  0  0
  2  3  2  0  0  0  0
  2  7  1  0  0  0  0
  3  4  1  0  0  0  0
  3 10  1  0  0  0  0
  4  5  2  0  0  0  0
  4 19  1  0  0  0  0
  5  6  1  0  0  0  0
  5 20  1  0  0  0  0
  6  7  2  0  0  0  0
  6 18  1  0  0  0  0
  7 21  1  0  0  0  0
  9 11  1  0  0  0  0
  9 22  1  0  0  0  0
 10 23  1  0  0  0  0
 11 12  2  0  0  0  0
 11 16  1  0  0  0  0
 12 13  1  0  0  0  0
 12 24  1  0  0  0  0
 13 14  2  0  0  0  0
 13 25  1  0  0  0  0
 14 15  1  0  0  0  0
 14 17  1  0  0  0  0
 15 16  2  0  0  0  0
 15 26  1  0  0  0  0
 16 27  1  0  0  0  0
M  END
>  <From>
www.bindingDB.org

>  <BindingDB Reactant_set_id>
408372

>  <Ligand InChI>
InChI=1S/C13H8Br2FNO2/c14-7-5-10(12(18)11(15)6-7)13(19)17-9-3-1-8(16)2-4-9/h1-6,18H,(H,17,19)

>  <Ligand InChI Key>
WXOUZNPPDSWDGY-UHFFFAOYSA-N

>  <BindingDB MonomerID>
234327

>  <BindingDB Ligand Name>
3,5-Dibromo-N-(4-fluorophenyl)-2-hydroxybenzamide (29)

>  <Target Name>
Epidermal growth factor receptor [645-1186]

>  <Target Source Organism According to Curator or DataSource>


>  <Ki (nM)>


>  <IC50 (nM)>
50000

>  <Kd (nM)>


>  <EC50 (nM)>


>  <kon (M-1-s-1)>


>  <koff (s-1)>


>  <pH>
7.4

>  <Temp C>
25.00

>  <Curation/DataSource>
Curated from the literature by BindingDB

>  <Article DOI>
10.3109/14756361003671060

>  <BindingDB Entry DOI>
10.7270/Q2XW4HPN

>  <PMID>
20583855

>  <PubChem AID>
aid1802974

>  <Patent Number>


>  <Authors>
Zhu, ZW; Shi, L; Ruan, XM; Yang, Y; Li, HQ; Xu, SP; Zhu, HL

>  <Institution>
Nanjing University

>  <Link to Ligand in BindingDB>
http://www.bindingdb.org/bind/chemsearch/marvin/MolStructure.jsp?monomerid=234327

>  <Link to Ligand-Target Pair in BindingDB>
http://www.bindingdb.org/jsp/dbsearch/PrimarySearch_ki.jsp?energyterm=kJ/mole&tag=r21&monomerid=234327&enzyme=Epidermal+growth+factor+receptor+%5B645-1186%5D&column=ki&startPg=0&Increment=50&submit=Search

>  <Ligand HET ID in PDB>


>  <PDB ID(s) for Ligand-Target Complex>


>  <PubChem CID of Ligand>
352410

>  <PubChem SID of Ligand>
340094316

>  <ChEBI ID of Ligand>


>  <ChEMBL ID of Ligand>


>  <DrugBank ID of Ligand>


>  <IUPHAR_GRAC ID of Ligand>


>  <KEGG ID of Ligand>


>  <ZINC ID of Ligand>


>  <Number of Protein Chains in Target (bigger than 1 implies a multichain complex)>
1

>  <BindingDB Target Chain Sequence>
SIATGMVGALLLLLVVALGIGLFMRRRHIVRKRTLRRLLQERELVEPLTPSGEAPNQALLRILKETEFKKIKVLGSGAFGTVYKGLWIPEGEKVKIPVAIKELREATSPKANKEILDEAYVMASVDNPHVCRLLGICLTSTVQLITQLMPFGCLLDYVREHKDNIGSQYLLNWCVQIAKGMNYLEDRRLVHRDLAARNVLVKTPQHVKITDFGLAKLLGAEEKEYHAEGGKVPIKWMALESILHRIYTHQSDVWSYGVTVWELMTFGSKPYDGIPASEISSILEKGERLPQPPICTIDVYMIMVKCWMIDADSRPKFRELIIEFSKMARDPQRYLVIQGDERMHLPSPTDSNFYRALMDEEDMDDVVDADEYLIPQQGFFSSPSTSRTPLLSSLSATSNNSTVACIDRNGLQSCPIKEDSFLQRYSSDPTGALTEDSIDDTFLPVPEYINQSVPKRPAGSVQNPVYHNQPLNPAPSRDPHYQDPHSTAVGNPEYLNTVQPTCVNSTFDSPAHWAQKGSHQISLDNPDYQQDFFPKEAKPNGI

>  <PDB ID(s) of Target Chain>
1M14,1M17,1XKK,1Z9I,2GS2,2GS6,2ITW,2ITX,2ITY,2J5E,2J5F,2J6M,2RF9,2RGP,3BEL,3GOP,3POZ,3VJO,3W2O,3W2P,3W2Q,3W2R,3W2S,3W32,3W33,4G5J,4I23,4JQ7,4JQ8,4JR3,4JRV,4LI5,4RJ4,4RJ5,4RJ6,4RJ7,4RJ8,4TKS,4WKQ,4WRG,4ZAU,5C8K,5C8M,5C8N,5CAL,5CAN,5CAO,5CAP,5CAQ,5CAS,5CAU,5CAV,5EDP,5EDQ,5EDR,5EM5,5EM6,5EM7,5EM8,5GNK,5HCX,5HCY,5HCZ,5HIB,5HIC,5UGB,5Y25,6D8E,6JZ0,6S89,6S8A,6VH4,6VHN,6VHP,7AEI,7AEM,7B85,7OXB,7SI1,7UKV,7ZYM,7ZYN,7ZYP,8A27,8A2A,8HY7

>  <UniProt (SwissProt) Recommended Name of Target Chain>
Epidermal growth factor receptor

>  <UniProt (SwissProt) Entry Name of Target Chain>
EGFR_HUMAN

>  <UniProt (SwissProt) Primary ID of Target Chain>
P00533

>  <UniProt (SwissProt) Secondary ID(s) of Target Chain>
O00688 O00732 P06268 Q14225 Q68GS5 Q92795 Q9BZS2 Q9GZX1 Q9H2C9 Q9H3C9 Q9UMD7 Q9UMD8 Q9UMG5

>  <UniProt (SwissProt) Alternative ID(s) of Target Chain>


>  <UniProt (TrEMBL) Submitted Name of Target Chain>


>  <UniProt (TrEMBL) Entry Name of Target Chain>


>  <UniProt (TrEMBL) Primary ID of Target Chain>


>  <UniProt (TrEMBL) Secondary ID(s) of Target Chain>


>  <UniProt (TrEMBL) Alternative ID(s) of Target Chain>


$$$$
Untitled Document-1
 OpenBabel07052409033D

 27 28  0  0  0  0  0  0  0  0999 V2000
   -1.4140   -0.6286   -0.0281 C   0  0  0  0  0  0  0  0  0  0  0  0
   -2.8095   -0.1589   -0.1571 C   0  0  0  0  0  0  0  0  0  0  0  0
   -3.7572   -0.8467   -0.9543 C   0  0  0  0  0  0  0  0  0  0  0  0
   -5.0843   -0.4010   -0.9930 C   0  0  0  0  0  0  0  0  0  0  0  0
   -5.4750    0.7278   -0.2705 C   0  0  0  0  0  0  0  0  0  0  0  0
   -4.5417    1.4199    0.5014 C   0  0  0  0  0  0  0  0  0  0  0  0
   -3.2173    0.9800    0.5605 C   0  0  0  0  0  0  0  0  0  0  0  0
   -1.1936   -1.8431    0.2295 O   0  0  0  0  0  0  0  0  0  0  0  0
   -0.3216    0.3016   -0.1294 N   0  0  0  0  0  0  0  0  0  0  0  0
   -3.4119   -1.9518   -1.7355 O   0  0  0  0  0  0  0  0  0  0  0  0
    1.0629   -0.0847   -0.1606 C   0  0  0  0  0  0  0  0  0  0  0  0
    2.0240    0.7540    0.4250 C   0  0  0  0  0  0  0  0  0  0  0  0
    3.3794    0.4125    0.3879 C   0  0  0  0  0  0  0  0  0  0  0  0
    3.7889   -0.7628   -0.2489 C   0  0  0  0  0  0  0  0  0  0  0  0
    2.8417   -1.5925   -0.8566 C   0  0  0  0  0  0  0  0  0  0  0  0
    1.4853   -1.2540   -0.8202 C   0  0  0  0  0  0  0  0  0  0  0  0
    5.6408   -1.2263   -0.3022 Br  0  0  0  0  0  0  0  0  0  0  0  0
   -5.7791   -0.9113   -1.5603 H   0  0  0  0  0  0  0  0  0  0  0  0
   -6.4546    1.0503   -0.3075 H   0  0  0  0  0  0  0  0  0  0  0  0
   -4.8302    2.2582    1.0296 H   0  0  0  0  0  0  0  0  0  0  0  0
   -2.5323    1.4949    1.1355 H   0  0  0  0  0  0  0  0  0  0  0  0
   -0.5350    1.2613   -0.1805 H   0  0  0  0  0  0  0  0  0  0  0  0
   -2.5316   -2.2727   -1.7300 H   0  0  0  0  0  0  0  0  0  0  0  0
    1.7283    1.6286    0.8861 H   0  0  0  0  0  0  0  0  0  0  0  0
    4.0784    1.0289    0.8312 H   0  0  0  0  0  0  0  0  0  0  0  0
    3.1442   -2.4565   -1.3330 H   0  0  0  0  0  0  0  0  0  0  0  0
    0.7910   -1.8643   -1.2790 H   0  0  0  0  0  0  0  0  0  0  0  0
  1  2  1  0  0  0  0
  1  8  2  0  0  0  0
  1  9  1  0  0  0  0
  2  3  2  0  0  0  0
  2  7  1  0  0  0  0
  3  4  1  0  0  0  0
  3 10  1  0  0  0  0
  4  5  2  0  0  0  0
  4 18  1  0  0  0  0
  5  6  1  0  0  0  0
  5 19  1  0  0  0  0
  6  7  2  0  0  0  0
  6 20  1  0  0  0  0
  7 21  1  0  0  0  0
  9 11  1  0  0  0  0
  9 22  1  0  0  0  0
 10 23  1  0  0  0  0
 11 12  2  0  0  0  0
 11 16  1  0  0  0  0
 12 13  1  0  0  0  0
 12 24  1  0  0  0  0
 13 14  2  0  0  0  0
 13 25  1  0  0  0  0
 14 15  1  0  0  0  0
 14 17  1  0  0  0  0
 15 16  2  0  0  0  0
 15 26  1  0  0  0  0
 16 27  1  0  0  0  0
M  END
>  <From>
www.bindingDB.org

>  <BindingDB Reactant_set_id>
408350

>  <Ligand InChI>
InChI=1S/C13H10BrNO2/c14-9-5-7-10(8-6-9)15-13(17)11-3-1-2-4-12(11)16/h1-8,16H,(H,15,17)

>  <Ligand InChI Key>
DKQMTUHJJPFJRL-UHFFFAOYSA-N

>  <BindingDB MonomerID>
234306

>  <BindingDB Ligand Name>
N-(4-bromophenyl)-2-hydroxybenzamide (7)

>  <Target Name>
Epidermal growth factor receptor [645-1186]

>  <Target Source Organism According to Curator or DataSource>


>  <Ki (nM)>


>  <IC50 (nM)>
50000

>  <Kd (nM)>


>  <EC50 (nM)>


>  <kon (M-1-s-1)>


>  <koff (s-1)>


>  <pH>
7.4

>  <Temp C>
25.00

>  <Curation/DataSource>
Curated from the literature by BindingDB

>  <Article DOI>
10.3109/14756361003671060

>  <BindingDB Entry DOI>
10.7270/Q2XW4HPN

>  <PMID>
20583855

>  <PubChem AID>
aid1802974

>  <Patent Number>


>  <Authors>
Zhu, ZW; Shi, L; Ruan, XM; Yang, Y; Li, HQ; Xu, SP; Zhu, HL

>  <Institution>
Nanjing University

>  <Link to Ligand in BindingDB>
http://www.bindingdb.org/bind/chemsearch/marvin/MolStructure.jsp?monomerid=234306

>  <Link to Ligand-Target Pair in BindingDB>
http://www.bindingdb.org/jsp/dbsearch/PrimarySearch_ki.jsp?energyterm=kJ/mole&tag=r21&monomerid=234306&enzyme=Epidermal+growth+factor+receptor+%5B645-1186%5D&column=ki&startPg=0&Increment=50&submit=Search

>  <Ligand HET ID in PDB>


>  <PDB ID(s) for Ligand-Target Complex>


>  <PubChem CID of Ligand>
75817

>  <PubChem SID of Ligand>
340094295

>  <ChEBI ID of Ligand>


>  <ChEMBL ID of Ligand>


>  <DrugBank ID of Ligand>


>  <IUPHAR_GRAC ID of Ligand>


>  <KEGG ID of Ligand>


>  <ZINC ID of Ligand>


>  <Number of Protein Chains in Target (bigger than 1 implies a multichain complex)>
1

>  <BindingDB Target Chain Sequence>
SIATGMVGALLLLLVVALGIGLFMRRRHIVRKRTLRRLLQERELVEPLTPSGEAPNQALLRILKETEFKKIKVLGSGAFGTVYKGLWIPEGEKVKIPVAIKELREATSPKANKEILDEAYVMASVDNPHVCRLLGICLTSTVQLITQLMPFGCLLDYVREHKDNIGSQYLLNWCVQIAKGMNYLEDRRLVHRDLAARNVLVKTPQHVKITDFGLAKLLGAEEKEYHAEGGKVPIKWMALESILHRIYTHQSDVWSYGVTVWELMTFGSKPYDGIPASEISSILEKGERLPQPPICTIDVYMIMVKCWMIDADSRPKFRELIIEFSKMARDPQRYLVIQGDERMHLPSPTDSNFYRALMDEEDMDDVVDADEYLIPQQGFFSSPSTSRTPLLSSLSATSNNSTVACIDRNGLQSCPIKEDSFLQRYSSDPTGALTEDSIDDTFLPVPEYINQSVPKRPAGSVQNPVYHNQPLNPAPSRDPHYQDPHSTAVGNPEYLNTVQPTCVNSTFDSPAHWAQKGSHQISLDNPDYQQDFFPKEAKPNGI

>  <PDB ID(s) of Target Chain>
1M14,1M17,1XKK,1Z9I,2GS2,2GS6,2ITW,2ITX,2ITY,2J5E,2J5F,2J6M,2RF9,2RGP,3BEL,3GOP,3POZ,3VJO,3W2O,3W2P,3W2Q,3W2R,3W2S,3W32,3W33,4G5J,4I23,4JQ7,4JQ8,4JR3,4JRV,4LI5,4RJ4,4RJ5,4RJ6,4RJ7,4RJ8,4TKS,4WKQ,4WRG,4ZAU,5C8K,5C8M,5C8N,5CAL,5CAN,5CAO,5CAP,5CAQ,5CAS,5CAU,5CAV,5EDP,5EDQ,5EDR,5EM5,5EM6,5EM7,5EM8,5GNK,5HCX,5HCY,5HCZ,5HIB,5HIC,5UGB,5Y25,6D8E,6JZ0,6S89,6S8A,6VH4,6VHN,6VHP,7AEI,7AEM,7B85,7OXB,7SI1,7UKV,7ZYM,7ZYN,7ZYP,8A27,8A2A,8HY7

>  <UniProt (SwissProt) Recommended Name of Target Chain>
Epidermal growth factor receptor

>  <UniProt (SwissProt) Entry Name of Target Chain>
EGFR_HUMAN

>  <UniProt (SwissProt) Primary ID of Target Chain>
P00533

>  <UniProt (SwissProt) Secondary ID(s) of Target Chain>
O00688 O00732 P06268 Q14225 Q68GS5 Q92795 Q9BZS2 Q9GZX1 Q9H2C9 Q9H3C9 Q9UMD7 Q9UMD8 Q9UMG5

>  <UniProt (SwissProt) Alternative ID(s) of Target Chain>


>  <UniProt (TrEMBL) Submitted Name of Target Chain>


>  <UniProt (TrEMBL) Entry Name of Target Chain>


>  <UniProt (TrEMBL) Primary ID of Target Chain>


>  <UniProt (TrEMBL) Secondary ID(s) of Target Chain>


>  <UniProt (TrEMBL) Alternative ID(s) of Target Chain>


$$$$
Untitled Document-1
 OpenBabel07052409033D

 27 28  0  0  0  0  0  0  0  0999 V2000
   -1.4085   -0.6013   -0.0725 C   0  0  0  0  0  0  0  0  0  0  0  0
   -2.8073   -0.1258   -0.1387 C   0  0  0  0  0  0  0  0  0  0  0  0
   -3.2161    1.0640    0.5017 C   0  0  0  0  0  0  0  0  0  0  0  0
   -4.5503    1.4869    0.4005 C   0  0  0  0  0  0  0  0  0  0  0  0
   -5.4801    0.7253   -0.3105 C   0  0  0  0  0  0  0  0  0  0  0  0
   -5.0862   -0.4659   -0.9215 C   0  0  0  0  0  0  0  0  0  0  0  0
   -3.7588   -0.8931   -0.8330 C   0  0  0  0  0  0  0  0  0  0  0  0
   -1.1899   -1.8235    0.1482 O   0  0  0  0  0  0  0  0  0  0  0  0
   -0.3115    0.3104   -0.2627 N   0  0  0  0  0  0  0  0  0  0  0  0
   -2.3117    1.8080    1.2593 O   0  0  0  0  0  0  0  0  0  0  0  0
    1.0716   -0.0799   -0.2233 C   0  0  0  0  0  0  0  0  0  0  0  0
    2.0149    0.7700    0.3794 C   0  0  0  0  0  0  0  0  0  0  0  0
    3.3684    0.4172    0.4042 C   0  0  0  0  0  0  0  0  0  0  0  0
    3.7933   -0.7764   -0.1852 C   0  0  0  0  0  0  0  0  0  0  0  0
    2.8663   -1.6160   -0.8078 C   0  0  0  0  0  0  0  0  0  0  0  0
    1.5121   -1.2687   -0.8342 C   0  0  0  0  0  0  0  0  0  0  0  0
    5.1062   -1.1143   -0.1623 F   0  0  0  0  0  0  0  0  0  0  0  0
    1.6192    1.9318    0.9581 F   0  0  0  0  0  0  0  0  0  0  0  0
   -4.8460    2.3655    0.8540 H   0  0  0  0  0  0  0  0  0  0  0  0
   -6.4590    1.0435   -0.3841 H   0  0  0  0  0  0  0  0  0  0  0  0
   -5.7763   -1.0321   -1.4394 H   0  0  0  0  0  0  0  0  0  0  0  0
   -3.4748   -1.7785   -1.2807 H   0  0  0  0  0  0  0  0  0  0  0  0
   -0.5206    1.2578   -0.4298 H   0  0  0  0  0  0  0  0  0  0  0  0
   -1.4197    1.5299    1.3301 H   0  0  0  0  0  0  0  0  0  0  0  0
    4.0545    1.0398    0.8588 H   0  0  0  0  0  0  0  0  0  0  0  0
    3.1816   -2.4941   -1.2490 H   0  0  0  0  0  0  0  0  0  0  0  0
    0.8324   -1.8871   -1.3039 H   0  0  0  0  0  0  0  0  0  0  0  0
  1  2  1  0  0  0  0
  1  8  2  0  0  0  0
  1  9  1  0  0  0  0
  2  3  2  0  0  0  0
  2  7  1  0  0  0  0
  3  4  1  0  0  0  0
  3 10  1  0  0  0  0
  4  5  2  0  0  0  0
  4 19  1  0  0  0  0
  5  6  1  0  0  0  0
  5 20  1  0  0  0  0
  6  7  2  0  0  0  0
  6 21  1  0  0  0  0
  7 22  1  0  0  0  0
  9 11  1  0  0  0  0
  9 23  1  0  0  0  0
 10 24  1  0  0  0  0
 11 12  2  0  0  0  0
 11 16  1  0  0  0  0
 12 13  1  0  0  0  0
 12 18  1  0  0  0  0
 13 14  2  0  0  0  0
 13 25  1  0  0  0  0
 14 15  1  0  0  0  0
 14 17  1  0  0  0  0
 15 16  2  0  0  0  0
 15 26  1  0  0  0  0
 16 27  1  0  0  0  0
M  END
>  <From>
www.bindingDB.org

>  <BindingDB Reactant_set_id>
408351

>  <Ligand InChI>
InChI=1S/C13H9F2NO2/c14-8-5-6-11(10(15)7-8)16-13(18)9-3-1-2-4-12(9)17/h1-7,17H,(H,16,18)

>  <Ligand InChI Key>
ODTXYAGVNHCSKH-UHFFFAOYSA-N

>  <BindingDB MonomerID>
234307

>  <BindingDB Ligand Name>
N-(2,4-difluorophenyl)-2-hydroxybenzamide (8)

>  <Target Name>
Epidermal growth factor receptor [645-1186]

>  <Target Source Organism According to Curator or DataSource>


>  <Ki (nM)>


>  <IC50 (nM)>
50000

>  <Kd (nM)>


>  <EC50 (nM)>


>  <kon (M-1-s-1)>


>  <koff (s-1)>


>  <pH>
7.4

>  <Temp C>
25.00

>  <Curation/DataSource>
Curated from the literature by BindingDB

>  <Article DOI>
10.3109/14756361003671060

>  <BindingDB Entry DOI>
10.7270/Q2XW4HPN

>  <PMID>
20583855

>  <PubChem AID>
aid1802974

>  <Patent Number>


>  <Authors>
Zhu, ZW; Shi, L; Ruan, XM; Yang, Y; Li, HQ; Xu, SP; Zhu, HL

>  <Institution>
Nanjing University

>  <Link to Ligand in BindingDB>
http://www.bindingdb.org/bind/chemsearch/marvin/MolStructure.jsp?monomerid=234307

>  <Link to Ligand-Target Pair in BindingDB>
http://www.bindingdb.org/jsp/dbsearch/PrimarySearch_ki.jsp?energyterm=kJ/mole&tag=r21&monomerid=234307&enzyme=Epidermal+growth+factor+receptor+%5B645-1186%5D&column=ki&startPg=0&Increment=50&submit=Search

>  <Ligand HET ID in PDB>


>  <PDB ID(s) for Ligand-Target Complex>


>  <PubChem CID of Ligand>
28393775

>  <PubChem SID of Ligand>
340094296

>  <ChEBI ID of Ligand>


>  <ChEMBL ID of Ligand>


>  <DrugBank ID of Ligand>


>  <IUPHAR_GRAC ID of Ligand>


>  <KEGG ID of Ligand>


>  <ZINC ID of Ligand>


>  <Number of Protein Chains in Target (bigger than 1 implies a multichain complex)>
1

>  <BindingDB Target Chain Sequence>
SIATGMVGALLLLLVVALGIGLFMRRRHIVRKRTLRRLLQERELVEPLTPSGEAPNQALLRILKETEFKKIKVLGSGAFGTVYKGLWIPEGEKVKIPVAIKELREATSPKANKEILDEAYVMASVDNPHVCRLLGICLTSTVQLITQLMPFGCLLDYVREHKDNIGSQYLLNWCVQIAKGMNYLEDRRLVHRDLAARNVLVKTPQHVKITDFGLAKLLGAEEKEYHAEGGKVPIKWMALESILHRIYTHQSDVWSYGVTVWELMTFGSKPYDGIPASEISSILEKGERLPQPPICTIDVYMIMVKCWMIDADSRPKFRELIIEFSKMARDPQRYLVIQGDERMHLPSPTDSNFYRALMDEEDMDDVVDADEYLIPQQGFFSSPSTSRTPLLSSLSATSNNSTVACIDRNGLQSCPIKEDSFLQRYSSDPTGALTEDSIDDTFLPVPEYINQSVPKRPAGSVQNPVYHNQPLNPAPSRDPHYQDPHSTAVGNPEYLNTVQPTCVNSTFDSPAHWAQKGSHQISLDNPDYQQDFFPKEAKPNGI

>  <PDB ID(s) of Target Chain>
1M14,1M17,1XKK,1Z9I,2GS2,2GS6,2ITW,2ITX,2ITY,2J5E,2J5F,2J6M,2RF9,2RGP,3BEL,3GOP,3POZ,3VJO,3W2O,3W2P,3W2Q,3W2R,3W2S,3W32,3W33,4G5J,4I23,4JQ7,4JQ8,4JR3,4JRV,4LI5,4RJ4,4RJ5,4RJ6,4RJ7,4RJ8,4TKS,4WKQ,4WRG,4ZAU,5C8K,5C8M,5C8N,5CAL,5CAN,5CAO,5CAP,5CAQ,5CAS,5CAU,5CAV,5EDP,5EDQ,5EDR,5EM5,5EM6,5EM7,5EM8,5GNK,5HCX,5HCY,5HCZ,5HIB,5HIC,5UGB,5Y25,6D8E,6JZ0,6S89,6S8A,6VH4,6VHN,6VHP,7AEI,7AEM,7B85,7OXB,7SI1,7UKV,7ZYM,7ZYN,7ZYP,8A27,8A2A,8HY7

>  <UniProt (SwissProt) Recommended Name of Target Chain>
Epidermal growth factor receptor

>  <UniProt (SwissProt) Entry Name of Target Chain>
EGFR_HUMAN

>  <UniProt (SwissProt) Primary ID of Target Chain>
P00533

>  <UniProt (SwissProt) Secondary ID(s) of Target Chain>
O00688 O00732 P06268 Q14225 Q68GS5 Q92795 Q9BZS2 Q9GZX1 Q9H2C9 Q9H3C9 Q9UMD7 Q9UMD8 Q9UMG5

>  <UniProt (SwissProt) Alternative ID(s) of Target Chain>


>  <UniProt (TrEMBL) Submitted Name of Target Chain>


>  <UniProt (TrEMBL) Entry Name of Target Chain>


>  <UniProt (TrEMBL) Primary ID of Target Chain>


>  <UniProt (TrEMBL) Secondary ID(s) of Target Chain>


>  <UniProt (TrEMBL) Alternative ID(s) of Target Chain>


$$$$
Untitled Document-1
 OpenBabel07052409033D

 27 28  0  0  0  0  0  0  0  0999 V2000
   -1.4074   -0.6308   -0.0299 C   0  0  0  0  0  0  0  0  0  0  0  0
   -2.8028   -0.1603   -0.1576 C   0  0  0  0  0  0  0  0  0  0  0  0
   -3.7509   -0.8468   -0.9547 C   0  0  0  0  0  0  0  0  0  0  0  0
   -5.0774   -0.4002   -0.9927 C   0  0  0  0  0  0  0  0  0  0  0  0
   -5.4674    0.7284   -0.2698 C   0  0  0  0  0  0  0  0  0  0  0  0
   -4.5337    1.4204    0.5032 C   0  0  0  0  0  0  0  0  0  0  0  0
   -3.2091    0.9782    0.5612 C   0  0  0  0  0  0  0  0  0  0  0  0
   -1.1875   -1.8454    0.2278 O   0  0  0  0  0  0  0  0  0  0  0  0
   -0.3148    0.2990   -0.1322 N   0  0  0  0  0  0  0  0  0  0  0  0
   -5.1263    3.1230    1.5981 I   0  0  0  0  0  0  0  0  0  0  0  0
   -3.4068   -1.9516   -1.7367 O   0  0  0  0  0  0  0  0  0  0  0  0
    1.0697   -0.0875   -0.1619 C   0  0  0  0  0  0  0  0  0  0  0  0
    2.0306    0.7520    0.4235 C   0  0  0  0  0  0  0  0  0  0  0  0
    3.3860    0.4100    0.3875 C   0  0  0  0  0  0  0  0  0  0  0  0
    3.7950   -0.7657   -0.2475 C   0  0  0  0  0  0  0  0  0  0  0  0
    2.8491   -1.5962   -0.8547 C   0  0  0  0  0  0  0  0  0  0  0  0
    1.4925   -1.2579   -0.8198 C   0  0  0  0  0  0  0  0  0  0  0  0
    5.1097   -1.0947   -0.2844 F   0  0  0  0  0  0  0  0  0  0  0  0
   -5.7727   -0.9098   -1.5600 H   0  0  0  0  0  0  0  0  0  0  0  0
   -6.4468    1.0514   -0.3069 H   0  0  0  0  0  0  0  0  0  0  0  0
   -2.5232    1.4916    1.1365 H   0  0  0  0  0  0  0  0  0  0  0  0
   -0.5280    1.2587   -0.1851 H   0  0  0  0  0  0  0  0  0  0  0  0
   -2.5267   -2.2732   -1.7318 H   0  0  0  0  0  0  0  0  0  0  0  0
    1.7348    1.6272    0.8834 H   0  0  0  0  0  0  0  0  0  0  0  0
    4.0851    1.0266    0.8304 H   0  0  0  0  0  0  0  0  0  0  0  0
    3.1522   -2.4608   -1.3297 H   0  0  0  0  0  0  0  0  0  0  0  0
    0.7986   -1.8689   -1.2783 H   0  0  0  0  0  0  0  0  0  0  0  0
  1  2  1  0  0  0  0
  1  8  2  0  0  0  0
  1  9  1  0  0  0  0
  2  3  2  0  0  0  0
  2  7  1  0  0  0  0
  3  4  1  0  0  0  0
  3 11  1  0  0  0  0
  4  5  2  0  0  0  0
  4 19  1  0  0  0  0
  5  6  1  0  0  0  0
  5 20  1  0  0  0  0
  6  7  2  0  0  0  0
  6 10  1  0  0  0  0
  7 21  1  0  0  0  0
  9 12  1  0  0  0  0
  9 22  1  0  0  0  0
 11 23  1  0  0  0  0
 12 13  2  0  0  0  0
 12 17  1  0  0  0  0
 13 14  1  0  0  0  0
 13 24  1  0  0  0  0
 14 15  2  0  0  0  0
 14 25  1  0  0  0  0
 15 16  1  0  0  0  0
 15 18  1  0  0  0  0
 16 17  2  0  0  0  0
 16 26  1  0  0  0  0
 17 27  1  0  0  0  0
M  END
>  <From>
www.bindingDB.org

>  <BindingDB Reactant_set_id>
408366

>  <Ligand InChI>
InChI=1S/C13H9FINO2/c14-8-1-4-10(5-2-8)16-13(18)11-7-9(15)3-6-12(11)17/h1-7,17H,(H,16,18)

>  <Ligand InChI Key>
KNBXEFXDDUIVBJ-UHFFFAOYSA-N

>  <BindingDB MonomerID>
234321

>  <BindingDB Ligand Name>
N-(4-fluorophenyl)-2-hydroxy-5-iodobenzamide (23)

>  <Target Name>
Epidermal growth factor receptor [645-1186]

>  <Target Source Organism According to Curator or DataSource>


>  <Ki (nM)>


>  <IC50 (nM)>
50000

>  <Kd (nM)>


>  <EC50 (nM)>


>  <kon (M-1-s-1)>


>  <koff (s-1)>


>  <pH>
7.4

>  <Temp C>
25.00

>  <Curation/DataSource>
Curated from the literature by BindingDB

>  <Article DOI>
10.3109/14756361003671060

>  <BindingDB Entry DOI>
10.7270/Q2XW4HPN

>  <PMID>
20583855

>  <PubChem AID>
aid1802974

>  <Patent Number>


>  <Authors>
Zhu, ZW; Shi, L; Ruan, XM; Yang, Y; Li, HQ; Xu, SP; Zhu, HL

>  <Institution>
Nanjing University

>  <Link to Ligand in BindingDB>
http://www.bindingdb.org/bind/chemsearch/marvin/MolStructure.jsp?monomerid=234321

>  <Link to Ligand-Target Pair in BindingDB>
http://www.bindingdb.org/jsp/dbsearch/PrimarySearch_ki.jsp?energyterm=kJ/mole&tag=r21&monomerid=234321&enzyme=Epidermal+growth+factor+receptor+%5B645-1186%5D&column=ki&startPg=0&Increment=50&submit=Search

>  <Ligand HET ID in PDB>


>  <PDB ID(s) for Ligand-Target Complex>


>  <PubChem CID of Ligand>
42052185

>  <PubChem SID of Ligand>
340094310

>  <ChEBI ID of Ligand>


>  <ChEMBL ID of Ligand>


>  <DrugBank ID of Ligand>


>  <IUPHAR_GRAC ID of Ligand>


>  <KEGG ID of Ligand>


>  <ZINC ID of Ligand>


>  <Number of Protein Chains in Target (bigger than 1 implies a multichain complex)>
1

>  <BindingDB Target Chain Sequence>
SIATGMVGALLLLLVVALGIGLFMRRRHIVRKRTLRRLLQERELVEPLTPSGEAPNQALLRILKETEFKKIKVLGSGAFGTVYKGLWIPEGEKVKIPVAIKELREATSPKANKEILDEAYVMASVDNPHVCRLLGICLTSTVQLITQLMPFGCLLDYVREHKDNIGSQYLLNWCVQIAKGMNYLEDRRLVHRDLAARNVLVKTPQHVKITDFGLAKLLGAEEKEYHAEGGKVPIKWMALESILHRIYTHQSDVWSYGVTVWELMTFGSKPYDGIPASEISSILEKGERLPQPPICTIDVYMIMVKCWMIDADSRPKFRELIIEFSKMARDPQRYLVIQGDERMHLPSPTDSNFYRALMDEEDMDDVVDADEYLIPQQGFFSSPSTSRTPLLSSLSATSNNSTVACIDRNGLQSCPIKEDSFLQRYSSDPTGALTEDSIDDTFLPVPEYINQSVPKRPAGSVQNPVYHNQPLNPAPSRDPHYQDPHSTAVGNPEYLNTVQPTCVNSTFDSPAHWAQKGSHQISLDNPDYQQDFFPKEAKPNGI

>  <PDB ID(s) of Target Chain>
1M14,1M17,1XKK,1Z9I,2GS2,2GS6,2ITW,2ITX,2ITY,2J5E,2J5F,2J6M,2RF9,2RGP,3BEL,3GOP,3POZ,3VJO,3W2O,3W2P,3W2Q,3W2R,3W2S,3W32,3W33,4G5J,4I23,4JQ7,4JQ8,4JR3,4JRV,4LI5,4RJ4,4RJ5,4RJ6,4RJ7,4RJ8,4TKS,4WKQ,4WRG,4ZAU,5C8K,5C8M,5C8N,5CAL,5CAN,5CAO,5CAP,5CAQ,5CAS,5CAU,5CAV,5EDP,5EDQ,5EDR,5EM5,5EM6,5EM7,5EM8,5GNK,5HCX,5HCY,5HCZ,5HIB,5HIC,5UGB,5Y25,6D8E,6JZ0,6S89,6S8A,6VH4,6VHN,6VHP,7AEI,7AEM,7B85,7OXB,7SI1,7UKV,7ZYM,7ZYN,7ZYP,8A27,8A2A,8HY7

>  <UniProt (SwissProt) Recommended Name of Target Chain>
Epidermal growth factor receptor

>  <UniProt (SwissProt) Entry Name of Target Chain>
EGFR_HUMAN

>  <UniProt (SwissProt) Primary ID of Target Chain>
P00533

>  <UniProt (SwissProt) Secondary ID(s) of Target Chain>
O00688 O00732 P06268 Q14225 Q68GS5 Q92795 Q9BZS2 Q9GZX1 Q9H2C9 Q9H3C9 Q9UMD7 Q9UMD8 Q9UMG5

>  <UniProt (SwissProt) Alternative ID(s) of Target Chain>


>  <UniProt (TrEMBL) Submitted Name of Target Chain>


>  <UniProt (TrEMBL) Entry Name of Target Chain>


>  <UniProt (TrEMBL) Primary ID of Target Chain>


>  <UniProt (TrEMBL) Secondary ID(s) of Target Chain>


>  <UniProt (TrEMBL) Alternative ID(s) of Target Chain>


$$$$
Untitled Document-1
 OpenBabel07052409033D

 39 40  0  0  0  0  0  0  0  0999 V2000
   -1.3604   -0.3975   -0.5500 C   0  0  0  0  0  0  0  0  0  0  0  0
   -2.7900   -0.1254   -0.2915 C   0  0  0  0  0  0  0  0  0  0  0  0
   -3.7656   -1.1494   -0.3464 C   0  0  0  0  0  0  0  0  0  0  0  0
   -5.1165   -0.8324   -0.1589 C   0  0  0  0  0  0  0  0  0  0  0  0
   -5.5124    0.4834    0.1178 C   0  0  0  0  0  0  0  0  0  0  0  0
   -4.5459    1.4953    0.1718 C   0  0  0  0  0  0  0  0  0  0  0  0
   -3.1971    1.1931   -0.0262 C   0  0  0  0  0  0  0  0  0  0  0  0
   -1.0339   -1.0635   -1.5698 O   0  0  0  0  0  0  0  0  0  0  0  0
   -0.3490    0.1480    0.3149 N   0  0  0  0  0  0  0  0  0  0  0  0
   -6.9656    0.8163    0.2852 C   0  0  0  0  0  0  0  0  0  0  0  0
    1.0479   -0.1804    0.2252 C   0  0  0  0  0  0  0  0  0  0  0  0
    2.0042    0.7966    0.5335 C   0  0  0  0  0  0  0  0  0  0  0  0
    3.3682    0.4983    0.4764 C   0  0  0  0  0  0  0  0  0  0  0  0
    3.8025   -0.7928    0.1236 C   0  0  0  0  0  0  0  0  0  0  0  0
    2.8414   -1.7780   -0.1597 C   0  0  0  0  0  0  0  0  0  0  0  0
    1.4774   -1.4776   -0.1033 C   0  0  0  0  0  0  0  0  0  0  0  0
    5.2798   -1.1328    0.0594 C   0  0  0  0  0  0  0  0  0  0  0  0
    5.9420   -0.9790    1.4337 C   0  0  0  0  0  0  0  0  0  0  0  0
    5.9974   -0.2841   -0.9969 C   0  0  0  0  0  0  0  0  0  0  0  0
   -3.4289   -2.4881   -0.5593 O   0  0  0  0  0  0  0  0  0  0  0  0
   -5.8289   -1.5761   -0.2252 H   0  0  0  0  0  0  0  0  0  0  0  0
   -4.8319    2.4691    0.3588 H   0  0  0  0  0  0  0  0  0  0  0  0
   -2.4924    1.9454    0.0228 H   0  0  0  0  0  0  0  0  0  0  0  0
   -0.6303    0.7851    1.0108 H   0  0  0  0  0  0  0  0  0  0  0  0
   -7.5471   -0.0791    0.2143 H   0  0  0  0  0  0  0  0  0  0  0  0
   -7.2660    1.4984   -0.4825 H   0  0  0  0  0  0  0  0  0  0  0  0
   -7.1202    1.2670    1.2432 H   0  0  0  0  0  0  0  0  0  0  0  0
    1.6985    1.7442    0.8049 H   0  0  0  0  0  0  0  0  0  0  0  0
    4.0621    1.2303    0.6946 H   0  0  0  0  0  0  0  0  0  0  0  0
    3.1452   -2.7316   -0.4116 H   0  0  0  0  0  0  0  0  0  0  0  0
    0.7816   -2.2128   -0.3041 H   0  0  0  0  0  0  0  0  0  0  0  0
    5.3660   -2.1586   -0.2324 H   0  0  0  0  0  0  0  0  0  0  0  0
    5.8707    0.0401    1.7519 H   0  0  0  0  0  0  0  0  0  0  0  0
    6.9721   -1.2606    1.3668 H   0  0  0  0  0  0  0  0  0  0  0  0
    5.4453   -1.6092    2.1415 H   0  0  0  0  0  0  0  0  0  0  0  0
    5.9278    0.7500   -0.7311 H   0  0  0  0  0  0  0  0  0  0  0  0
    5.5382   -0.4388   -1.9509 H   0  0  0  0  0  0  0  0  0  0  0  0
    7.0270   -0.5712   -1.0459 H   0  0  0  0  0  0  0  0  0  0  0  0
   -2.5332   -2.7312   -0.6880 H   0  0  0  0  0  0  0  0  0  0  0  0
  1  2  1  0  0  0  0
  1  8  2  0  0  0  0
  1  9  1  0  0  0  0
  2  3  2  0  0  0  0
  2  7  1  0  0  0  0
  3  4  1  0  0  0  0
  3 20  1  0  0  0  0
  4  5  2  0  0  0  0
  4 21  1  0  0  0  0
  5  6  1  0  0  0  0
  5 10  1  0  0  0  0
  6  7  2  0  0  0  0
  6 22  1  0  0  0  0
  7 23  1  0  0  0  0
  9 11  1  0  0  0  0
  9 24  1  0  0  0  0
 10 25  1  0  0  0  0
 10 26  1  0  0  0  0
 10 27  1  0  0  0  0
 11 12  2  0  0  0  0
 11 16  1  0  0  0  0
 12 13  1  0  0  0  0
 12 28  1  0  0  0  0
 13 14  2  0  0  0  0
 13 29  1  0  0  0  0
 14 15  1  0  0  0  0
 14 17  1  0  0  0  0
 15 16  2  0  0  0  0
 15 30  1  0  0  0  0
 16 31  1  0  0  0  0
 17 18  1  0  0  0  0
 17 19  1  0  0  0  0
 17 32  1  0  0  0  0
 18 33  1  0  0  0  0
 18 34  1  0  0  0  0
 18 35  1  0  0  0  0
 19 36  1  0  0  0  0
 19 37  1  0  0  0  0
 19 38  1  0  0  0  0
 20 39  1  0  0  0  0
M  END
>  <From>
www.bindingDB.org

>  <BindingDB Reactant_set_id>
408363

>  <Ligand InChI>
InChI=1S/C17H19NO2/c1-11(2)13-5-7-14(8-6-13)18-17(20)15-9-4-12(3)10-16(15)19/h4-11,19H,1-3H3,(H,18,20)

>  <Ligand InChI Key>
ZXKHSBAKJHMPQB-UHFFFAOYSA-N

>  <BindingDB MonomerID>
234318

>  <BindingDB Ligand Name>
2-Hydroxy-N-(4-isopropylphenyl)-4-methylbenzamide (20)

>  <Target Name>
Epidermal growth factor receptor [645-1186]

>  <Target Source Organism According to Curator or DataSource>


>  <Ki (nM)>


>  <IC50 (nM)>
50000

>  <Kd (nM)>


>  <EC50 (nM)>


>  <kon (M-1-s-1)>


>  <koff (s-1)>


>  <pH>
7.4

>  <Temp C>
25.00

>  <Curation/DataSource>
Curated from the literature by BindingDB

>  <Article DOI>
10.3109/14756361003671060

>  <BindingDB Entry DOI>
10.7270/Q2XW4HPN

>  <PMID>
20583855

>  <PubChem AID>
aid1802974

>  <Patent Number>


>  <Authors>
Zhu, ZW; Shi, L; Ruan, XM; Yang, Y; Li, HQ; Xu, SP; Zhu, HL

>  <Institution>
Nanjing University

>  <Link to Ligand in BindingDB>
http://www.bindingdb.org/bind/chemsearch/marvin/MolStructure.jsp?monomerid=234318

>  <Link to Ligand-Target Pair in BindingDB>
http://www.bindingdb.org/jsp/dbsearch/PrimarySearch_ki.jsp?energyterm=kJ/mole&tag=r21&monomerid=234318&enzyme=Epidermal+growth+factor+receptor+%5B645-1186%5D&column=ki&startPg=0&Increment=50&submit=Search

>  <Ligand HET ID in PDB>


>  <PDB ID(s) for Ligand-Target Complex>


>  <PubChem CID of Ligand>
29798976

>  <PubChem SID of Ligand>
340094307

>  <ChEBI ID of Ligand>


>  <ChEMBL ID of Ligand>


>  <DrugBank ID of Ligand>


>  <IUPHAR_GRAC ID of Ligand>


>  <KEGG ID of Ligand>


>  <ZINC ID of Ligand>


>  <Number of Protein Chains in Target (bigger than 1 implies a multichain complex)>
1

>  <BindingDB Target Chain Sequence>
SIATGMVGALLLLLVVALGIGLFMRRRHIVRKRTLRRLLQERELVEPLTPSGEAPNQALLRILKETEFKKIKVLGSGAFGTVYKGLWIPEGEKVKIPVAIKELREATSPKANKEILDEAYVMASVDNPHVCRLLGICLTSTVQLITQLMPFGCLLDYVREHKDNIGSQYLLNWCVQIAKGMNYLEDRRLVHRDLAARNVLVKTPQHVKITDFGLAKLLGAEEKEYHAEGGKVPIKWMALESILHRIYTHQSDVWSYGVTVWELMTFGSKPYDGIPASEISSILEKGERLPQPPICTIDVYMIMVKCWMIDADSRPKFRELIIEFSKMARDPQRYLVIQGDERMHLPSPTDSNFYRALMDEEDMDDVVDADEYLIPQQGFFSSPSTSRTPLLSSLSATSNNSTVACIDRNGLQSCPIKEDSFLQRYSSDPTGALTEDSIDDTFLPVPEYINQSVPKRPAGSVQNPVYHNQPLNPAPSRDPHYQDPHSTAVGNPEYLNTVQPTCVNSTFDSPAHWAQKGSHQISLDNPDYQQDFFPKEAKPNGI

>  <PDB ID(s) of Target Chain>
1M14,1M17,1XKK,1Z9I,2GS2,2GS6,2ITW,2ITX,2ITY,2J5E,2J5F,2J6M,2RF9,2RGP,3BEL,3GOP,3POZ,3VJO,3W2O,3W2P,3W2Q,3W2R,3W2S,3W32,3W33,4G5J,4I23,4JQ7,4JQ8,4JR3,4JRV,4LI5,4RJ4,4RJ5,4RJ6,4RJ7,4RJ8,4TKS,4WKQ,4WRG,4ZAU,5C8K,5C8M,5C8N,5CAL,5CAN,5CAO,5CAP,5CAQ,5CAS,5CAU,5CAV,5EDP,5EDQ,5EDR,5EM5,5EM6,5EM7,5EM8,5GNK,5HCX,5HCY,5HCZ,5HIB,5HIC,5UGB,5Y25,6D8E,6JZ0,6S89,6S8A,6VH4,6VHN,6VHP,7AEI,7AEM,7B85,7OXB,7SI1,7UKV,7ZYM,7ZYN,7ZYP,8A27,8A2A,8HY7

>  <UniProt (SwissProt) Recommended Name of Target Chain>
Epidermal growth factor receptor

>  <UniProt (SwissProt) Entry Name of Target Chain>
EGFR_HUMAN

>  <UniProt (SwissProt) Primary ID of Target Chain>
P00533

>  <UniProt (SwissProt) Secondary ID(s) of Target Chain>
O00688 O00732 P06268 Q14225 Q68GS5 Q92795 Q9BZS2 Q9GZX1 Q9H2C9 Q9H3C9 Q9UMD7 Q9UMD8 Q9UMG5

>  <UniProt (SwissProt) Alternative ID(s) of Target Chain>


>  <UniProt (TrEMBL) Submitted Name of Target Chain>


>  <UniProt (TrEMBL) Entry Name of Target Chain>


>  <UniProt (TrEMBL) Primary ID of Target Chain>


>  <UniProt (TrEMBL) Secondary ID(s) of Target Chain>


>  <UniProt (TrEMBL) Alternative ID(s) of Target Chain>


$$$$
Untitled Document-1
 OpenBabel07052409033D

 30 31  0  0  0  0  0  0  0  0999 V2000
   -0.3588    0.0266    0.5206 C   0  0  0  0  0  0  0  0  0  0  0  0
    1.0679   -0.2070    0.2129 C   0  0  0  0  0  0  0  0  0  0  0  0
    2.0524    0.7834    0.4436 C   0  0  0  0  0  0  0  0  0  0  0  0
    3.4002    0.4933    0.1986 C   0  0  0  0  0  0  0  0  0  0  0  0
    3.7840   -0.7565   -0.3068 C   0  0  0  0  0  0  0  0  0  0  0  0
    2.8087   -1.7351   -0.5349 C   0  0  0  0  0  0  0  0  0  0  0  0
    1.4630   -1.4613   -0.2820 C   0  0  0  0  0  0  0  0  0  0  0  0
   -0.6777    0.5089    1.6412 O   0  0  0  0  0  0  0  0  0  0  0  0
   -1.3769   -0.3536   -0.4215 N   0  0  0  0  0  0  0  0  0  0  0  0
    5.2339   -1.0666   -0.5352 C   0  0  0  0  0  0  0  0  0  0  0  0
    1.7279    2.0666    0.8896 O   0  0  0  0  0  0  0  0  0  0  0  0
   -2.7720   -0.0428   -0.2622 C   0  0  0  0  0  0  0  0  0  0  0  0
   -3.7429   -0.9591   -0.7029 C   0  0  0  0  0  0  0  0  0  0  0  0
   -5.1037   -0.6604   -0.5769 C   0  0  0  0  0  0  0  0  0  0  0  0
   -5.5068    0.5586   -0.0255 C   0  0  0  0  0  0  0  0  0  0  0  0
   -4.5491    1.4851    0.3945 C   0  0  0  0  0  0  0  0  0  0  0  0
   -3.1876    1.1913    0.2720 C   0  0  0  0  0  0  0  0  0  0  0  0
   -6.8264    0.8463    0.0928 F   0  0  0  0  0  0  0  0  0  0  0  0
   -3.3701   -2.1486   -1.2387 F   0  0  0  0  0  0  0  0  0  0  0  0
    4.1192    1.2078    0.3924 H   0  0  0  0  0  0  0  0  0  0  0  0
    3.0858   -2.6630   -0.8916 H   0  0  0  0  0  0  0  0  0  0  0  0
    0.7516   -2.1874   -0.4603 H   0  0  0  0  0  0  0  0  0  0  0  0
   -1.1027   -0.8561   -1.2224 H   0  0  0  0  0  0  0  0  0  0  0  0
    5.8233   -0.2025   -0.3097 H   0  0  0  0  0  0  0  0  0  0  0  0
    5.3827   -1.3428   -1.5582 H   0  0  0  0  0  0  0  0  0  0  0  0
    5.5298   -1.8757    0.0993 H   0  0  0  0  0  0  0  0  0  0  0  0
    0.8346    2.2907    1.0621 H   0  0  0  0  0  0  0  0  0  0  0  0
   -5.8116   -1.3420   -0.8920 H   0  0  0  0  0  0  0  0  0  0  0  0
   -4.8471    2.3879    0.7959 H   0  0  0  0  0  0  0  0  0  0  0  0
   -2.4839    1.8828    0.5748 H   0  0  0  0  0  0  0  0  0  0  0  0
  1  2  1  0  0  0  0
  1  8  2  0  0  0  0
  1  9  1  0  0  0  0
  2  3  2  0  0  0  0
  2  7  1  0  0  0  0
  3  4  1  0  0  0  0
  3 11  1  0  0  0  0
  4  5  2  0  0  0  0
  4 20  1  0  0  0  0
  5  6  1  0  0  0  0
  5 10  1  0  0  0  0
  6  7  2  0  0  0  0
  6 21  1  0  0  0  0
  7 22  1  0  0  0  0
  9 12  1  0  0  0  0
  9 23  1  0  0  0  0
 10 24  1  0  0  0  0
 10 25  1  0  0  0  0
 10 26  1  0  0  0  0
 11 27  1  0  0  0  0
 12 13  2  0  0  0  0
 12 17  1  0  0  0  0
 13 14  1  0  0  0  0
 13 19  1  0  0  0  0
 14 15  2  0  0  0  0
 14 28  1  0  0  0  0
 15 16  1  0  0  0  0
 15 18  1  0  0  0  0
 16 17  2  0  0  0  0
 16 29  1  0  0  0  0
 17 30  1  0  0  0  0
M  END
>  <From>
www.bindingDB.org

>  <BindingDB Reactant_set_id>
408360

>  <Ligand InChI>
InChI=1S/C14H11F2NO2/c1-8-2-4-10(13(18)6-8)14(19)17-12-5-3-9(15)7-11(12)16/h2-7,18H,1H3,(H,17,19)

>  <Ligand InChI Key>
IUWNPBOWBUZUBZ-UHFFFAOYSA-N

>  <BindingDB MonomerID>
234315

>  <BindingDB Ligand Name>
N-(2,4-difluorophenyl)-2-hydroxy-4-methylbenzamide (17)

>  <Target Name>
Epidermal growth factor receptor [645-1186]

>  <Target Source Organism According to Curator or DataSource>


>  <Ki (nM)>


>  <IC50 (nM)>
50000

>  <Kd (nM)>


>  <EC50 (nM)>


>  <kon (M-1-s-1)>


>  <koff (s-1)>


>  <pH>
7.4

>  <Temp C>
25.00

>  <Curation/DataSource>
Curated from the literature by BindingDB

>  <Article DOI>
10.3109/14756361003671060

>  <BindingDB Entry DOI>
10.7270/Q2XW4HPN

>  <PMID>
20583855

>  <PubChem AID>
aid1802974

>  <Patent Number>


>  <Authors>
Zhu, ZW; Shi, L; Ruan, XM; Yang, Y; Li, HQ; Xu, SP; Zhu, HL

>  <Institution>
Nanjing University

>  <Link to Ligand in BindingDB>
http://www.bindingdb.org/bind/chemsearch/marvin/MolStructure.jsp?monomerid=234315

>  <Link to Ligand-Target Pair in BindingDB>
http://www.bindingdb.org/jsp/dbsearch/PrimarySearch_ki.jsp?energyterm=kJ/mole&tag=r21&monomerid=234315&enzyme=Epidermal+growth+factor+receptor+%5B645-1186%5D&column=ki&startPg=0&Increment=50&submit=Search

>  <Ligand HET ID in PDB>


>  <PDB ID(s) for Ligand-Target Complex>


>  <PubChem CID of Ligand>
28393800

>  <PubChem SID of Ligand>
340094304

>  <ChEBI ID of Ligand>


>  <ChEMBL ID of Ligand>


>  <DrugBank ID of Ligand>


>  <IUPHAR_GRAC ID of Ligand>


>  <KEGG ID of Ligand>


>  <ZINC ID of Ligand>


>  <Number of Protein Chains in Target (bigger than 1 implies a multichain complex)>
1

>  <BindingDB Target Chain Sequence>
SIATGMVGALLLLLVVALGIGLFMRRRHIVRKRTLRRLLQERELVEPLTPSGEAPNQALLRILKETEFKKIKVLGSGAFGTVYKGLWIPEGEKVKIPVAIKELREATSPKANKEILDEAYVMASVDNPHVCRLLGICLTSTVQLITQLMPFGCLLDYVREHKDNIGSQYLLNWCVQIAKGMNYLEDRRLVHRDLAARNVLVKTPQHVKITDFGLAKLLGAEEKEYHAEGGKVPIKWMALESILHRIYTHQSDVWSYGVTVWELMTFGSKPYDGIPASEISSILEKGERLPQPPICTIDVYMIMVKCWMIDADSRPKFRELIIEFSKMARDPQRYLVIQGDERMHLPSPTDSNFYRALMDEEDMDDVVDADEYLIPQQGFFSSPSTSRTPLLSSLSATSNNSTVACIDRNGLQSCPIKEDSFLQRYSSDPTGALTEDSIDDTFLPVPEYINQSVPKRPAGSVQNPVYHNQPLNPAPSRDPHYQDPHSTAVGNPEYLNTVQPTCVNSTFDSPAHWAQKGSHQISLDNPDYQQDFFPKEAKPNGI

>  <PDB ID(s) of Target Chain>
1M14,1M17,1XKK,1Z9I,2GS2,2GS6,2ITW,2ITX,2ITY,2J5E,2J5F,2J6M,2RF9,2RGP,3BEL,3GOP,3POZ,3VJO,3W2O,3W2P,3W2Q,3W2R,3W2S,3W32,3W33,4G5J,4I23,4JQ7,4JQ8,4JR3,4JRV,4LI5,4RJ4,4RJ5,4RJ6,4RJ7,4RJ8,4TKS,4WKQ,4WRG,4ZAU,5C8K,5C8M,5C8N,5CAL,5CAN,5CAO,5CAP,5CAQ,5CAS,5CAU,5CAV,5EDP,5EDQ,5EDR,5EM5,5EM6,5EM7,5EM8,5GNK,5HCX,5HCY,5HCZ,5HIB,5HIC,5UGB,5Y25,6D8E,6JZ0,6S89,6S8A,6VH4,6VHN,6VHP,7AEI,7AEM,7B85,7OXB,7SI1,7UKV,7ZYM,7ZYN,7ZYP,8A27,8A2A,8HY7

>  <UniProt (SwissProt) Recommended Name of Target Chain>
Epidermal growth factor receptor

>  <UniProt (SwissProt) Entry Name of Target Chain>
EGFR_HUMAN

>  <UniProt (SwissProt) Primary ID of Target Chain>
P00533

>  <UniProt (SwissProt) Secondary ID(s) of Target Chain>
O00688 O00732 P06268 Q14225 Q68GS5 Q92795 Q9BZS2 Q9GZX1 Q9H2C9 Q9H3C9 Q9UMD7 Q9UMD8 Q9UMG5

>  <UniProt (SwissProt) Alternative ID(s) of Target Chain>


>  <UniProt (TrEMBL) Submitted Name of Target Chain>


>  <UniProt (TrEMBL) Entry Name of Target Chain>


>  <UniProt (TrEMBL) Primary ID of Target Chain>


>  <UniProt (TrEMBL) Secondary ID(s) of Target Chain>


>  <UniProt (TrEMBL) Alternative ID(s) of Target Chain>


$$$$
Untitled Document-1
 OpenBabel07052409033D

 30 31  0  0  0  0  0  0  0  0999 V2000
   -0.3152    0.4285   -0.3697 C   0  0  0  0  0  0  0  0  0  0  0  0
    1.0886   -0.0291   -0.2871 C   0  0  0  0  0  0  0  0  0  0  0  0
    1.4901   -1.2802   -0.7996 C   0  0  0  0  0  0  0  0  0  0  0  0
    2.8290   -1.6841   -0.6865 C   0  0  0  0  0  0  0  0  0  0  0  0
    3.7766   -0.8494   -0.0774 C   0  0  0  0  0  0  0  0  0  0  0  0
    3.3840    0.4125    0.3880 C   0  0  0  0  0  0  0  0  0  0  0  0
    2.0514    0.8182    0.2854 C   0  0  0  0  0  0  0  0  0  0  0  0
   -0.5494    1.6138   -0.7309 O   0  0  0  0  0  0  0  0  0  0  0  0
   -1.3989   -0.4588   -0.0389 N   0  0  0  0  0  0  0  0  0  0  0  0
   -2.7859   -0.0826   -0.0705 C   0  0  0  0  0  0  0  0  0  0  0  0
   -3.7404   -1.0156   -0.5049 C   0  0  0  0  0  0  0  0  0  0  0  0
   -5.0985   -0.6832   -0.5224 C   0  0  0  0  0  0  0  0  0  0  0  0
   -5.5160    0.5781   -0.0902 C   0  0  0  0  0  0  0  0  0  0  0  0
   -4.5767    1.5052    0.3685 C   0  0  0  0  0  0  0  0  0  0  0  0
   -3.2173    1.1768    0.3865 C   0  0  0  0  0  0  0  0  0  0  0  0
    5.2147   -1.2693    0.0001 C   0  0  0  0  0  0  0  0  0  0  0  0
    0.5723   -2.1073   -1.4471 O   0  0  0  0  0  0  0  0  0  0  0  0
    3.1188   -2.6035   -1.0548 H   0  0  0  0  0  0  0  0  0  0  0  0
    4.0826    1.0451    0.8085 H   0  0  0  0  0  0  0  0  0  0  0  0
    1.7718    1.7487    0.6333 H   0  0  0  0  0  0  0  0  0  0  0  0
   -1.1765   -1.3807    0.2255 H   0  0  0  0  0  0  0  0  0  0  0  0
   -3.4379   -1.9528   -0.8133 H   0  0  0  0  0  0  0  0  0  0  0  0
   -5.7931   -1.3702   -0.8549 H   0  0  0  0  0  0  0  0  0  0  0  0
   -6.5179    0.8249   -0.1097 H   0  0  0  0  0  0  0  0  0  0  0  0
   -4.8866    2.4340    0.6946 H   0  0  0  0  0  0  0  0  0  0  0  0
   -2.5279    1.8605    0.7362 H   0  0  0  0  0  0  0  0  0  0  0  0
    5.3201   -2.2562   -0.3997 H   0  0  0  0  0  0  0  0  0  0  0  0
    5.5338   -1.2622    1.0214 H   0  0  0  0  0  0  0  0  0  0  0  0
    5.8159   -0.5890   -0.5661 H   0  0  0  0  0  0  0  0  0  0  0  0
   -0.3231   -1.8425   -1.5255 H   0  0  0  0  0  0  0  0  0  0  0  0
  1  2  1  0  0  0  0
  1  8  2  0  0  0  0
  1  9  1  0  0  0  0
  2  3  2  0  0  0  0
  2  7  1  0  0  0  0
  3  4  1  0  0  0  0
  3 17  1  0  0  0  0
  4  5  2  0  0  0  0
  4 18  1  0  0  0  0
  5  6  1  0  0  0  0
  5 16  1  0  0  0  0
  6  7  2  0  0  0  0
  6 19  1  0  0  0  0
  7 20  1  0  0  0  0
  9 10  1  0  0  0  0
  9 21  1  0  0  0  0
 10 11  2  0  0  0  0
 10 15  1  0  0  0  0
 11 12  1  0  0  0  0
 11 22  1  0  0  0  0
 12 13  2  0  0  0  0
 12 23  1  0  0  0  0
 13 14  1  0  0  0  0
 13 24  1  0  0  0  0
 14 15  2  0  0  0  0
 14 25  1  0  0  0  0
 15 26  1  0  0  0  0
 16 27  1  0  0  0  0
 16 28  1  0  0  0  0
 16 29  1  0  0  0  0
 17 30  1  0  0  0  0
M  END
>  <From>
www.bindingDB.org

>  <BindingDB Reactant_set_id>
408356

>  <Ligand InChI>
InChI=1S/C14H13NO2/c1-10-7-8-12(13(16)9-10)14(17)15-11-5-3-2-4-6-11/h2-9,16H,1H3,(H,15,17)

>  <Ligand InChI Key>
ILTDMZSEFBIATD-UHFFFAOYSA-N

>  <BindingDB MonomerID>
234311

>  <BindingDB Ligand Name>
2-Hydroxy-4-methyl-N-phenylbenzamide (13)

>  <Target Name>
Epidermal growth factor receptor [645-1186]

>  <Target Source Organism According to Curator or DataSource>


>  <Ki (nM)>


>  <IC50 (nM)>
50000

>  <Kd (nM)>


>  <EC50 (nM)>


>  <kon (M-1-s-1)>


>  <koff (s-1)>


>  <pH>
7.4

>  <Temp C>
25.00

>  <Curation/DataSource>
Curated from the literature by BindingDB

>  <Article DOI>
10.3109/14756361003671060

>  <BindingDB Entry DOI>
10.7270/Q2XW4HPN

>  <PMID>
20583855

>  <PubChem AID>
aid1802974

>  <Patent Number>


>  <Authors>
Zhu, ZW; Shi, L; Ruan, XM; Yang, Y; Li, HQ; Xu, SP; Zhu, HL

>  <Institution>
Nanjing University

>  <Link to Ligand in BindingDB>
http://www.bindingdb.org/bind/chemsearch/marvin/MolStructure.jsp?monomerid=234311

>  <Link to Ligand-Target Pair in BindingDB>
http://www.bindingdb.org/jsp/dbsearch/PrimarySearch_ki.jsp?energyterm=kJ/mole&tag=r21&monomerid=234311&enzyme=Epidermal+growth+factor+receptor+%5B645-1186%5D&column=ki&startPg=0&Increment=50&submit=Search

>  <Ligand HET ID in PDB>


>  <PDB ID(s) for Ligand-Target Complex>


>  <PubChem CID of Ligand>
5274032

>  <PubChem SID of Ligand>
340094300

>  <ChEBI ID of Ligand>


>  <ChEMBL ID of Ligand>


>  <DrugBank ID of Ligand>


>  <IUPHAR_GRAC ID of Ligand>


>  <KEGG ID of Ligand>


>  <ZINC ID of Ligand>


>  <Number of Protein Chains in Target (bigger than 1 implies a multichain complex)>
1

>  <BindingDB Target Chain Sequence>
SIATGMVGALLLLLVVALGIGLFMRRRHIVRKRTLRRLLQERELVEPLTPSGEAPNQALLRILKETEFKKIKVLGSGAFGTVYKGLWIPEGEKVKIPVAIKELREATSPKANKEILDEAYVMASVDNPHVCRLLGICLTSTVQLITQLMPFGCLLDYVREHKDNIGSQYLLNWCVQIAKGMNYLEDRRLVHRDLAARNVLVKTPQHVKITDFGLAKLLGAEEKEYHAEGGKVPIKWMALESILHRIYTHQSDVWSYGVTVWELMTFGSKPYDGIPASEISSILEKGERLPQPPICTIDVYMIMVKCWMIDADSRPKFRELIIEFSKMARDPQRYLVIQGDERMHLPSPTDSNFYRALMDEEDMDDVVDADEYLIPQQGFFSSPSTSRTPLLSSLSATSNNSTVACIDRNGLQSCPIKEDSFLQRYSSDPTGALTEDSIDDTFLPVPEYINQSVPKRPAGSVQNPVYHNQPLNPAPSRDPHYQDPHSTAVGNPEYLNTVQPTCVNSTFDSPAHWAQKGSHQISLDNPDYQQDFFPKEAKPNGI

>  <PDB ID(s) of Target Chain>
1M14,1M17,1XKK,1Z9I,2GS2,2GS6,2ITW,2ITX,2ITY,2J5E,2J5F,2J6M,2RF9,2RGP,3BEL,3GOP,3POZ,3VJO,3W2O,3W2P,3W2Q,3W2R,3W2S,3W32,3W33,4G5J,4I23,4JQ7,4JQ8,4JR3,4JRV,4LI5,4RJ4,4RJ5,4RJ6,4RJ7,4RJ8,4TKS,4WKQ,4WRG,4ZAU,5C8K,5C8M,5C8N,5CAL,5CAN,5CAO,5CAP,5CAQ,5CAS,5CAU,5CAV,5EDP,5EDQ,5EDR,5EM5,5EM6,5EM7,5EM8,5GNK,5HCX,5HCY,5HCZ,5HIB,5HIC,5UGB,5Y25,6D8E,6JZ0,6S89,6S8A,6VH4,6VHN,6VHP,7AEI,7AEM,7B85,7OXB,7SI1,7UKV,7ZYM,7ZYN,7ZYP,8A27,8A2A,8HY7

>  <UniProt (SwissProt) Recommended Name of Target Chain>
Epidermal growth factor receptor

>  <UniProt (SwissProt) Entry Name of Target Chain>
EGFR_HUMAN

>  <UniProt (SwissProt) Primary ID of Target Chain>
P00533

>  <UniProt (SwissProt) Secondary ID(s) of Target Chain>
O00688 O00732 P06268 Q14225 Q68GS5 Q92795 Q9BZS2 Q9GZX1 Q9H2C9 Q9H3C9 Q9UMD7 Q9UMD8 Q9UMG5

>  <UniProt (SwissProt) Alternative ID(s) of Target Chain>


>  <UniProt (TrEMBL) Submitted Name of Target Chain>


>  <UniProt (TrEMBL) Entry Name of Target Chain>


>  <UniProt (TrEMBL) Primary ID of Target Chain>


>  <UniProt (TrEMBL) Secondary ID(s) of Target Chain>


>  <UniProt (TrEMBL) Alternative ID(s) of Target Chain>


$$$$
Untitled Document-1
 OpenBabel07052409033D

 30 31  0  0  0  0  0  0  0  0999 V2000
   -1.4146   -0.6027   -0.0668 C   0  0  0  0  0  0  0  0  0  0  0  0
   -2.8122   -0.1248   -0.1375 C   0  0  0  0  0  0  0  0  0  0  0  0
   -3.2234    1.0579    0.5116 C   0  0  0  0  0  0  0  0  0  0  0  0
   -4.5555    1.4855    0.4061 C   0  0  0  0  0  0  0  0  0  0  0  0
   -5.4872    0.7409   -0.3310 C   0  0  0  0  0  0  0  0  0  0  0  0
   -5.0865   -0.4581   -0.9350 C   0  0  0  0  0  0  0  0  0  0  0  0
   -3.7604   -0.8862   -0.8403 C   0  0  0  0  0  0  0  0  0  0  0  0
   -1.1991   -1.8255    0.1534 O   0  0  0  0  0  0  0  0  0  0  0  0
   -0.3155    0.3080   -0.2511 N   0  0  0  0  0  0  0  0  0  0  0  0
   -6.9195    1.1811   -0.4024 C   0  0  0  0  0  0  0  0  0  0  0  0
   -2.3227    1.7905    1.2849 O   0  0  0  0  0  0  0  0  0  0  0  0
    1.0675   -0.0827   -0.2212 C   0  0  0  0  0  0  0  0  0  0  0  0
    2.0120    0.7802    0.3557 C   0  0  0  0  0  0  0  0  0  0  0  0
    3.3669    0.4355    0.3766 C   0  0  0  0  0  0  0  0  0  0  0  0
    3.7928   -0.7678   -0.1941 C   0  0  0  0  0  0  0  0  0  0  0  0
    2.8625   -1.6221   -0.7943 C   0  0  0  0  0  0  0  0  0  0  0  0
    1.5067   -1.2802   -0.8155 C   0  0  0  0  0  0  0  0  0  0  0  0
    5.4932   -1.1979   -0.1707 Cl  0  0  0  0  0  0  0  0  0  0  0  0
   -4.8521    2.3556    0.8751 H   0  0  0  0  0  0  0  0  0  0  0  0
   -5.7744   -1.0276   -1.4523 H   0  0  0  0  0  0  0  0  0  0  0  0
   -3.4748   -1.7697   -1.2907 H   0  0  0  0  0  0  0  0  0  0  0  0
   -0.5238    1.2574   -0.4073 H   0  0  0  0  0  0  0  0  0  0  0  0
   -7.0324    2.1125    0.1120 H   0  0  0  0  0  0  0  0  0  0  0  0
   -7.5430    0.4424    0.0564 H   0  0  0  0  0  0  0  0  0  0  0  0
   -7.2047    1.3024   -1.4265 H   0  0  0  0  0  0  0  0  0  0  0  0
   -1.4319    1.5094    1.3588 H   0  0  0  0  0  0  0  0  0  0  0  0
    1.7044    1.6752    0.7673 H   0  0  0  0  0  0  0  0  0  0  0  0
    4.0534    1.0700    0.8138 H   0  0  0  0  0  0  0  0  0  0  0  0
    3.1772   -2.5068   -1.2225 H   0  0  0  0  0  0  0  0  0  0  0  0
    0.8253   -1.9088   -1.2689 H   0  0  0  0  0  0  0  0  0  0  0  0
  1  2  1  0  0  0  0
  1  8  2  0  0  0  0
  1  9  1  0  0  0  0
  2  3  2  0  0  0  0
  2  7  1  0  0  0  0
  3  4  1  0  0  0  0
  3 11  1  0  0  0  0
  4  5  2  0  0  0  0
  4 19  1  0  0  0  0
  5  6  1  0  0  0  0
  5 10  1  0  0  0  0
  6  7  2  0  0  0  0
  6 20  1  0  0  0  0
  7 21  1  0  0  0  0
  9 12  1  0  0  0  0
  9 22  1  0  0  0  0
 10 23  1  0  0  0  0
 10 24  1  0  0  0  0
 10 25  1  0  0  0  0
 11 26  1  0  0  0  0
 12 13  2  0  0  0  0
 12 17  1  0  0  0  0
 13 14  1  0  0  0  0
 13 27  1  0  0  0  0
 14 15  2  0  0  0  0
 14 28  1  0  0  0  0
 15 16  1  0  0  0  0
 15 18  1  0  0  0  0
 16 17  2  0  0  0  0
 16 29  1  0  0  0  0
 17 30  1  0  0  0  0
M  END
>  <From>
www.bindingDB.org

>  <BindingDB Reactant_set_id>
408359

>  <Ligand InChI>
InChI=1S/C14H12ClNO2/c1-9-2-7-12(13(17)8-9)14(18)16-11-5-3-10(15)4-6-11/h2-8,17H,1H3,(H,16,18)

>  <Ligand InChI Key>
UVNMERMRDSXOPL-UHFFFAOYSA-N

>  <BindingDB MonomerID>
234314

>  <BindingDB Ligand Name>
N-(4-chlorophenyl)-2-hydroxy-4-methylbenzamide (16)

>  <Target Name>
Epidermal growth factor receptor [645-1186]

>  <Target Source Organism According to Curator or DataSource>


>  <Ki (nM)>


>  <IC50 (nM)>
50000

>  <Kd (nM)>


>  <EC50 (nM)>


>  <kon (M-1-s-1)>


>  <koff (s-1)>


>  <pH>
7.4

>  <Temp C>
25.00

>  <Curation/DataSource>
Curated from the literature by BindingDB

>  <Article DOI>
10.3109/14756361003671060

>  <BindingDB Entry DOI>
10.7270/Q2XW4HPN

>  <PMID>
20583855

>  <PubChem AID>
aid1802974

>  <Patent Number>


>  <Authors>
Zhu, ZW; Shi, L; Ruan, XM; Yang, Y; Li, HQ; Xu, SP; Zhu, HL

>  <Institution>
Nanjing University

>  <Link to Ligand in BindingDB>
http://www.bindingdb.org/bind/chemsearch/marvin/MolStructure.jsp?monomerid=234314

>  <Link to Ligand-Target Pair in BindingDB>
http://www.bindingdb.org/jsp/dbsearch/PrimarySearch_ki.jsp?energyterm=kJ/mole&tag=r21&monomerid=234314&enzyme=Epidermal+growth+factor+receptor+%5B645-1186%5D&column=ki&startPg=0&Increment=50&submit=Search

>  <Ligand HET ID in PDB>


>  <PDB ID(s) for Ligand-Target Complex>


>  <PubChem CID of Ligand>
5274034

>  <PubChem SID of Ligand>
340094303

>  <ChEBI ID of Ligand>


>  <ChEMBL ID of Ligand>


>  <DrugBank ID of Ligand>


>  <IUPHAR_GRAC ID of Ligand>


>  <KEGG ID of Ligand>


>  <ZINC ID of Ligand>


>  <Number of Protein Chains in Target (bigger than 1 implies a multichain complex)>
1

>  <BindingDB Target Chain Sequence>
SIATGMVGALLLLLVVALGIGLFMRRRHIVRKRTLRRLLQERELVEPLTPSGEAPNQALLRILKETEFKKIKVLGSGAFGTVYKGLWIPEGEKVKIPVAIKELREATSPKANKEILDEAYVMASVDNPHVCRLLGICLTSTVQLITQLMPFGCLLDYVREHKDNIGSQYLLNWCVQIAKGMNYLEDRRLVHRDLAARNVLVKTPQHVKITDFGLAKLLGAEEKEYHAEGGKVPIKWMALESILHRIYTHQSDVWSYGVTVWELMTFGSKPYDGIPASEISSILEKGERLPQPPICTIDVYMIMVKCWMIDADSRPKFRELIIEFSKMARDPQRYLVIQGDERMHLPSPTDSNFYRALMDEEDMDDVVDADEYLIPQQGFFSSPSTSRTPLLSSLSATSNNSTVACIDRNGLQSCPIKEDSFLQRYSSDPTGALTEDSIDDTFLPVPEYINQSVPKRPAGSVQNPVYHNQPLNPAPSRDPHYQDPHSTAVGNPEYLNTVQPTCVNSTFDSPAHWAQKGSHQISLDNPDYQQDFFPKEAKPNGI

>  <PDB ID(s) of Target Chain>
1M14,1M17,1XKK,1Z9I,2GS2,2GS6,2ITW,2ITX,2ITY,2J5E,2J5F,2J6M,2RF9,2RGP,3BEL,3GOP,3POZ,3VJO,3W2O,3W2P,3W2Q,3W2R,3W2S,3W32,3W33,4G5J,4I23,4JQ7,4JQ8,4JR3,4JRV,4LI5,4RJ4,4RJ5,4RJ6,4RJ7,4RJ8,4TKS,4WKQ,4WRG,4ZAU,5C8K,5C8M,5C8N,5CAL,5CAN,5CAO,5CAP,5CAQ,5CAS,5CAU,5CAV,5EDP,5EDQ,5EDR,5EM5,5EM6,5EM7,5EM8,5GNK,5HCX,5HCY,5HCZ,5HIB,5HIC,5UGB,5Y25,6D8E,6JZ0,6S89,6S8A,6VH4,6VHN,6VHP,7AEI,7AEM,7B85,7OXB,7SI1,7UKV,7ZYM,7ZYN,7ZYP,8A27,8A2A,8HY7

>  <UniProt (SwissProt) Recommended Name of Target Chain>
Epidermal growth factor receptor

>  <UniProt (SwissProt) Entry Name of Target Chain>
EGFR_HUMAN

>  <UniProt (SwissProt) Primary ID of Target Chain>
P00533

>  <UniProt (SwissProt) Secondary ID(s) of Target Chain>
O00688 O00732 P06268 Q14225 Q68GS5 Q92795 Q9BZS2 Q9GZX1 Q9H2C9 Q9H3C9 Q9UMD7 Q9UMD8 Q9UMG5

>  <UniProt (SwissProt) Alternative ID(s) of Target Chain>


>  <UniProt (TrEMBL) Submitted Name of Target Chain>


>  <UniProt (TrEMBL) Entry Name of Target Chain>


>  <UniProt (TrEMBL) Primary ID of Target Chain>


>  <UniProt (TrEMBL) Secondary ID(s) of Target Chain>


>  <UniProt (TrEMBL) Alternative ID(s) of Target Chain>


$$$$
