
     RDKit          3D

 22 22  0  0  0  0  0  0  0  0999 V2000
   -1.9113    0.8571    0.3497 C   0  0  0  0  0  0  0  0  0  0  0  0
   -2.6687    1.0002   -0.7679 O   0  0  0  0  0  0  0  0  0  0  0  0
   -0.5374    0.4807   -0.0359 C   0  0  0  0  0  0  0  0  0  0  0  0
   -2.2887    1.0701    1.4913 O   0  0  0  0  0  0  0  0  0  0  0  0
    0.3597    1.4825   -0.1308 C   0  0  0  0  0  0  0  0  0  0  0  0
   -0.0735   -0.8955    0.0409 C   0  0  0  0  0  0  0  0  0  0  0  0
    1.7734    1.2080    0.0701 C   0  0  0  0  0  0  0  0  0  0  0  0
    1.2416   -1.1570    0.1701 C   0  0  0  0  0  0  0  0  0  0  0  0
   -1.0367   -1.8705   -0.0523 O   0  0  0  0  0  0  0  0  0  0  0  0
    2.2083   -0.0601    0.2185 C   0  0  0  0  0  0  0  0  0  0  0  0
    3.6478   -0.4162    0.4272 C   0  0  0  0  0  0  0  0  0  0  0  0
   -3.8450    0.1983   -0.7144 C   0  0  0  0  0  0  0  0  0  0  0  0
    0.0583    2.5017   -0.3512 H   0  0  0  0  0  0  0  0  0  0  0  0
    2.4531    2.0543    0.0940 H   0  0  0  0  0  0  0  0  0  0  0  0
    1.6197   -2.1719    0.2234 H   0  0  0  0  0  0  0  0  0  0  0  0
   -0.6017   -2.7354    0.0376 H   0  0  0  0  0  0  0  0  0  0  0  0
    4.0052   -1.0638   -0.3805 H   0  0  0  0  0  0  0  0  0  0  0  0
    4.2876    0.4726    0.4477 H   0  0  0  0  0  0  0  0  0  0  0  0
    3.7798   -0.9421    1.3787 H   0  0  0  0  0  0  0  0  0  0  0  0
   -4.5360    0.5884    0.0394 H   0  0  0  0  0  0  0  0  0  0  0  0
   -4.3346    0.2453   -1.6911 H   0  0  0  0  0  0  0  0  0  0  0  0
   -3.6008   -0.8466   -0.4988 H   0  0  0  0  0  0  0  0  0  0  0  0
  1  2  1  0
  1  3  1  0
  1  4  2  0
  3  5  2  0
  6  3  1  0
  5  7  1  0
  8  6  2  0
  6  9  1  0
  7 10  2  0
 10  8  1  0
 10 11  1  0
  2 12  1  0
  5 13  1  0
  7 14  1  0
  8 15  1  0
  9 16  1  0
 11 17  1  0
 11 18  1  0
 11 19  1  0
 12 20  1  0
 12 21  1  0
 12 22  1  0
M  END
$$$$

     RDKit          3D

 31 32  0  0  0  0  0  0  0  0999 V2000
   -1.1659   -1.3785    0.4109 N   0  0  0  0  0  0  0  0  0  0  0  0
   -1.8803   -0.3331   -0.1456 C   0  0  0  0  0  0  0  0  0  0  0  0
   -0.2381   -2.0558   -0.3502 C   0  0  0  0  0  0  0  0  0  0  0  0
    1.1540   -1.5673   -0.2059 C   0  0  0  0  0  0  0  0  0  0  0  0
   -0.5105   -2.9855   -1.1008 O   0  0  0  0  0  0  0  0  0  0  0  0
    1.7396   -1.6744    1.0033 C   0  0  0  0  0  0  0  0  0  0  0  0
    1.6962   -0.6195   -1.1684 C   0  0  0  0  0  0  0  0  0  0  0  0
    2.5285   -0.5575    1.5018 C   0  0  0  0  0  0  0  0  0  0  0  0
    2.5163    0.3580   -0.7460 C   0  0  0  0  0  0  0  0  0  0  0  0
    1.3807   -0.7783   -2.4978 O   0  0  0  0  0  0  0  0  0  0  0  0
    2.9001    0.4343    0.6643 C   0  0  0  0  0  0  0  0  0  0  0  0
    3.7170    1.6144    1.0908 C   0  0  0  0  0  0  0  0  0  0  0  0
   -2.8546   -0.5530   -1.0521 C   0  0  0  0  0  0  0  0  0  0  0  0
   -1.8368    0.9558    0.5433 C   0  0  0  0  0  0  0  0  0  0  0  0
   -3.9750    0.3772   -1.1796 C   0  0  0  0  0  0  0  0  0  0  0  0
   -2.8320    1.8431    0.3891 C   0  0  0  0  0  0  0  0  0  0  0  0
   -0.7517    1.2271    1.3431 O   0  0  0  0  0  0  0  0  0  0  0  0
   -5.5484   -0.0680   -2.4374 I   0  0  0  0  0  0  0  0  0  0  0  0
   -3.9536    1.5308   -0.4809 C   0  0  0  0  0  0  0  0  0  0  0  0
   -1.7601   -2.0233    0.9243 H   0  0  0  0  0  0  0  0  0  0  0  0
    1.6993   -2.5900    1.5834 H   0  0  0  0  0  0  0  0  0  0  0  0
    2.8134   -0.5603    2.5496 H   0  0  0  0  0  0  0  0  0  0  0  0
    2.9365    1.0689   -1.4499 H   0  0  0  0  0  0  0  0  0  0  0  0
    0.9020   -1.6225   -2.6078 H   0  0  0  0  0  0  0  0  0  0  0  0
    3.1701    2.5457    0.9089 H   0  0  0  0  0  0  0  0  0  0  0  0
    3.9600    1.5751    2.1580 H   0  0  0  0  0  0  0  0  0  0  0  0
    4.6608    1.6509    0.5363 H   0  0  0  0  0  0  0  0  0  0  0  0
   -2.7757   -1.3660   -1.7679 H   0  0  0  0  0  0  0  0  0  0  0  0
   -2.8109    2.8023    0.8940 H   0  0  0  0  0  0  0  0  0  0  0  0
   -0.1286    0.4864    1.2337 H   0  0  0  0  0  0  0  0  0  0  0  0
   -4.7523    2.2629   -0.5446 H   0  0  0  0  0  0  0  0  0  0  0  0
  1  2  1  0
  3  1  1  0
  3  4  1  0
  3  5  2  0
  4  6  2  0
  7  4  1  0
  6  8  1  0
  9  7  2  0
  7 10  1  0
  8 11  2  0
 11  9  1  0
 11 12  1  0
  2 13  2  0
 14  2  1  0
 13 15  1  0
 16 14  2  0
 14 17  1  0
 15 18  1  0
 15 19  2  0
 19 16  1  0
  1 20  1  0
  6 21  1  0
  8 22  1  0
  9 23  1  0
 10 24  1  0
 12 25  1  0
 12 26  1  0
 12 27  1  0
 13 28  1  0
 16 29  1  0
 17 30  1  0
 19 31  1  0
M  END
$$$$

     RDKit          3D

 30 31  0  0  0  0  0  0  0  0999 V2000
   -0.9394    0.1036   -1.6424 N   0  0  0  0  0  0  0  0  0  0  0  0
   -1.9807   -0.4272   -0.9114 C   0  0  0  0  0  0  0  0  0  0  0  0
   -0.4102    1.3408   -1.3475 C   0  0  0  0  0  0  0  0  0  0  0  0
    0.7529    1.3150   -0.4264 C   0  0  0  0  0  0  0  0  0  0  0  0
   -0.7643    2.3904   -1.8745 O   0  0  0  0  0  0  0  0  0  0  0  0
    0.5303    1.1010    0.8846 C   0  0  0  0  0  0  0  0  0  0  0  0
    2.0996    1.1463   -0.9513 C   0  0  0  0  0  0  0  0  0  0  0  0
    1.4692    0.2769    1.6308 C   0  0  0  0  0  0  0  0  0  0  0  0
    3.0143    0.4753   -0.2302 C   0  0  0  0  0  0  0  0  0  0  0  0
    2.4088    1.7207   -2.1627 O   0  0  0  0  0  0  0  0  0  0  0  0
    2.6679   -0.0388    1.0955 C   0  0  0  0  0  0  0  0  0  0  0  0
    3.6888   -0.8801    1.7959 C   0  0  0  0  0  0  0  0  0  0  0  0
   -3.1803    0.1859   -0.8714 C   0  0  0  0  0  0  0  0  0  0  0  0
   -1.7332   -1.5577   -0.0057 C   0  0  0  0  0  0  0  0  0  0  0  0
   -4.0222    0.0391    0.3028 C   0  0  0  0  0  0  0  0  0  0  0  0
   -2.5749   -1.7638    1.0278 C   0  0  0  0  0  0  0  0  0  0  0  0
   -0.2971   -2.7079   -0.3375 Br  0  0  0  0  0  0  0  0  0  0  0  0
   -3.7269   -0.8974    1.2211 C   0  0  0  0  0  0  0  0  0  0  0  0
   -0.2605   -0.5748   -1.9739 H   0  0  0  0  0  0  0  0  0  0  0  0
   -0.3300    1.5169    1.3982 H   0  0  0  0  0  0  0  0  0  0  0  0
    1.1722   -0.0648    2.6172 H   0  0  0  0  0  0  0  0  0  0  0  0
    4.0265    0.3500   -0.5999 H   0  0  0  0  0  0  0  0  0  0  0  0
    1.6945    2.3437   -2.4017 H   0  0  0  0  0  0  0  0  0  0  0  0
    4.6158   -0.3168    1.9463 H   0  0  0  0  0  0  0  0  0  0  0  0
    3.3371   -1.2099    2.7792 H   0  0  0  0  0  0  0  0  0  0  0  0
    3.9173   -1.7754    1.2079 H   0  0  0  0  0  0  0  0  0  0  0  0
   -3.5112    0.8424   -1.6701 H   0  0  0  0  0  0  0  0  0  0  0  0
   -4.8816    0.6928    0.4095 H   0  0  0  0  0  0  0  0  0  0  0  0
   -2.4414   -2.5882    1.7204 H   0  0  0  0  0  0  0  0  0  0  0  0
   -4.3411   -1.0379    2.1045 H   0  0  0  0  0  0  0  0  0  0  0  0
  1  2  1  0
  3  1  1  0
  3  4  1  0
  3  5  2  0
  4  6  2  0
  7  4  1  0
  6  8  1  0
  9  7  2  0
  7 10  1  0
  8 11  2  0
 11  9  1  0
 11 12  1  0
  2 13  2  0
 14  2  1  0
 13 15  1  0
 16 14  2  0
 14 17  1  0
 15 18  2  0
 18 16  1  0
  1 19  1  0
  6 20  1  0
  8 21  1  0
  9 22  1  0
 10 23  1  0
 12 24  1  0
 12 25  1  0
 12 26  1  0
 13 27  1  0
 15 28  1  0
 16 29  1  0
 18 30  1  0
M  END
$$$$

     RDKit          3D

 33 34  0  0  0  0  0  0  0  0999 V2000
   -0.6225   -1.8198    0.6957 N   0  0  0  0  0  0  0  0  0  0  0  0
   -1.3593   -0.6660    0.5541 C   0  0  0  0  0  0  0  0  0  0  0  0
    0.0772   -2.3154   -0.3787 C   0  0  0  0  0  0  0  0  0  0  0  0
    1.4198   -1.7211   -0.5976 C   0  0  0  0  0  0  0  0  0  0  0  0
   -0.3579   -3.1817   -1.1325 O   0  0  0  0  0  0  0  0  0  0  0  0
    2.3001   -1.6725    0.4217 C   0  0  0  0  0  0  0  0  0  0  0  0
    1.6958   -0.9565   -1.8073 C   0  0  0  0  0  0  0  0  0  0  0  0
    3.2396   -0.5631    0.4926 C   0  0  0  0  0  0  0  0  0  0  0  0
    2.6345    0.0054   -1.7870 C   0  0  0  0  0  0  0  0  0  0  0  0
    1.0178   -1.2782   -2.9624 O   0  0  0  0  0  0  0  0  0  0  0  0
    3.4022    0.2568   -0.5674 C   0  0  0  0  0  0  0  0  0  0  0  0
    4.3534    1.4126   -0.5800 C   0  0  0  0  0  0  0  0  0  0  0  0
   -0.9947    0.4633    1.1878 C   0  0  0  0  0  0  0  0  0  0  0  0
   -2.7002   -0.7699   -0.0023 C   0  0  0  0  0  0  0  0  0  0  0  0
   -1.9949    1.4617    1.5282 C   0  0  0  0  0  0  0  0  0  0  0  0
   -3.6130    0.1844    0.2562 C   0  0  0  0  0  0  0  0  0  0  0  0
   -3.2613    1.3372    1.0815 C   0  0  0  0  0  0  0  0  0  0  0  0
   -4.3410    2.3319    1.3751 C   0  0  0  0  0  0  0  0  0  0  0  0
   -1.1248   -2.5549    1.1814 H   0  0  0  0  0  0  0  0  0  0  0  0
    2.3499   -2.4477    1.1781 H   0  0  0  0  0  0  0  0  0  0  0  0
    3.8014   -0.4311    1.4118 H   0  0  0  0  0  0  0  0  0  0  0  0
    2.8606    0.5729   -2.6835 H   0  0  0  0  0  0  0  0  0  0  0  0
    0.4744   -2.0739   -2.7907 H   0  0  0  0  0  0  0  0  0  0  0  0
    5.1042    1.2855   -1.3672 H   0  0  0  0  0  0  0  0  0  0  0  0
    4.8847    1.5111    0.3729 H   0  0  0  0  0  0  0  0  0  0  0  0
    3.8167    2.3503   -0.7595 H   0  0  0  0  0  0  0  0  0  0  0  0
    0.0466    0.6923    1.3874 H   0  0  0  0  0  0  0  0  0  0  0  0
   -2.9412   -1.6163   -0.6375 H   0  0  0  0  0  0  0  0  0  0  0  0
   -1.6798    2.3066    2.1315 H   0  0  0  0  0  0  0  0  0  0  0  0
   -4.6137    0.1217   -0.1593 H   0  0  0  0  0  0  0  0  0  0  0  0
   -5.1569    1.8597    1.9327 H   0  0  0  0  0  0  0  0  0  0  0  0
   -3.9696    3.1699    1.9749 H   0  0  0  0  0  0  0  0  0  0  0  0
   -4.7480    2.7446    0.4458 H   0  0  0  0  0  0  0  0  0  0  0  0
  1  2  1  0
  3  1  1  0
  3  4  1  0
  3  5  2  0
  4  6  2  0
  7  4  1  0
  6  8  1  0
  9  7  2  0
  7 10  1  0
  8 11  2  0
 11  9  1  0
 11 12  1  0
  2 13  2  0
 14  2  1  0
 13 15  1  0
 16 14  2  0
 15 17  2  0
 17 16  1  0
 17 18  1  0
  1 19  1  0
  6 20  1  0
  8 21  1  0
  9 22  1  0
 10 23  1  0
 12 24  1  0
 12 25  1  0
 12 26  1  0
 13 27  1  0
 14 28  1  0
 15 29  1  0
 16 30  1  0
 18 31  1  0
 18 32  1  0
 18 33  1  0
M  END
$$$$

     RDKit          3D

 30 31  0  0  0  0  0  0  0  0999 V2000
    0.8418    1.7161   -0.3315 N   0  0  0  0  0  0  0  0  0  0  0  0
    1.9455    1.1459    0.2659 C   0  0  0  0  0  0  0  0  0  0  0  0
    0.3227    1.2109   -1.5032 C   0  0  0  0  0  0  0  0  0  0  0  0
   -0.8073    0.2659   -1.3260 C   0  0  0  0  0  0  0  0  0  0  0  0
    0.6584    1.5746   -2.6258 O   0  0  0  0  0  0  0  0  0  0  0  0
   -0.5520   -0.9680   -0.8502 C   0  0  0  0  0  0  0  0  0  0  0  0
   -2.1777    0.7554   -1.3229 C   0  0  0  0  0  0  0  0  0  0  0  0
   -1.5074   -1.5813    0.0599 C   0  0  0  0  0  0  0  0  0  0  0  0
   -3.1019    0.1372   -0.5677 C   0  0  0  0  0  0  0  0  0  0  0  0
   -2.4975    1.8196   -2.1344 O   0  0  0  0  0  0  0  0  0  0  0  0
   -2.7391   -1.0489    0.2090 C   0  0  0  0  0  0  0  0  0  0  0  0
   -3.7809   -1.6202    1.1196 C   0  0  0  0  0  0  0  0  0  0  0  0
    3.1449    1.1351   -0.3488 C   0  0  0  0  0  0  0  0  0  0  0  0
    1.8021    0.4534    1.5497 C   0  0  0  0  0  0  0  0  0  0  0  0
    4.1660    0.1904    0.0716 C   0  0  0  0  0  0  0  0  0  0  0  0
    2.7839   -0.3590    1.9849 C   0  0  0  0  0  0  0  0  0  0  0  0
    0.3942    0.7141    2.5153 Cl  0  0  0  0  0  0  0  0  0  0  0  0
    3.9911   -0.5310    1.1928 C   0  0  0  0  0  0  0  0  0  0  0  0
    0.1447    2.0726    0.3158 H   0  0  0  0  0  0  0  0  0  0  0  0
    0.3366   -1.5218   -1.1336 H   0  0  0  0  0  0  0  0  0  0  0  0
   -1.1967   -2.4706    0.5992 H   0  0  0  0  0  0  0  0  0  0  0  0
   -4.1312    0.4803   -0.5627 H   0  0  0  0  0  0  0  0  0  0  0  0
   -1.7536    1.9757   -2.7495 H   0  0  0  0  0  0  0  0  0  0  0  0
   -3.4149   -2.5060    1.6498 H   0  0  0  0  0  0  0  0  0  0  0  0
   -4.6693   -1.9164    0.5518 H   0  0  0  0  0  0  0  0  0  0  0  0
   -4.0792   -0.8828    1.8725 H   0  0  0  0  0  0  0  0  0  0  0  0
    3.3590    1.7871   -1.1904 H   0  0  0  0  0  0  0  0  0  0  0  0
    5.0601    0.0923   -0.5356 H   0  0  0  0  0  0  0  0  0  0  0  0
    2.7175   -0.8823    2.9328 H   0  0  0  0  0  0  0  0  0  0  0  0
    4.7401   -1.2383    1.5339 H   0  0  0  0  0  0  0  0  0  0  0  0
  1  2  1  0
  3  1  1  0
  3  4  1  0
  3  5  2  0
  4  6  2  0
  7  4  1  0
  6  8  1  0
  9  7  2  0
  7 10  1  0
  8 11  2  0
 11  9  1  0
 11 12  1  0
  2 13  2  0
 14  2  1  0
 13 15  1  0
 16 14  2  0
 14 17  1  0
 15 18  2  0
 18 16  1  0
  1 19  1  0
  6 20  1  0
  8 21  1  0
  9 22  1  0
 10 23  1  0
 12 24  1  0
 12 25  1  0
 12 26  1  0
 13 27  1  0
 15 28  1  0
 16 29  1  0
 18 30  1  0
M  END
$$$$

     RDKit          3D

 30 31  0  0  0  0  0  0  0  0999 V2000
    1.0647   -1.2484    0.8141 N   0  0  0  0  0  0  0  0  0  0  0  0
    2.2275   -1.1880    0.0750 C   0  0  0  0  0  0  0  0  0  0  0  0
    0.4759   -0.0846    1.2688 C   0  0  0  0  0  0  0  0  0  0  0  0
   -0.8403    0.1705    0.6353 C   0  0  0  0  0  0  0  0  0  0  0  0
    0.9640    0.6578    2.1120 O   0  0  0  0  0  0  0  0  0  0  0  0
   -0.9136    1.1923   -0.2408 C   0  0  0  0  0  0  0  0  0  0  0  0
   -2.0567   -0.4886    1.0873 C   0  0  0  0  0  0  0  0  0  0  0  0
   -2.2123    1.6752   -0.6854 C   0  0  0  0  0  0  0  0  0  0  0  0
   -3.2585   -0.0482    0.6649 C   0  0  0  0  0  0  0  0  0  0  0  0
   -1.8947   -1.5635    1.9286 O   0  0  0  0  0  0  0  0  0  0  0  0
   -3.3468    1.0885   -0.2516 C   0  0  0  0  0  0  0  0  0  0  0  0
   -4.7142    1.5437   -0.6581 C   0  0  0  0  0  0  0  0  0  0  0  0
    2.1888   -0.9279   -1.2474 C   0  0  0  0  0  0  0  0  0  0  0  0
    3.5253   -1.2085    0.7532 C   0  0  0  0  0  0  0  0  0  0  0  0
    3.3379   -0.3085   -1.8908 C   0  0  0  0  0  0  0  0  0  0  0  0
    4.6154   -0.7215    0.1301 C   0  0  0  0  0  0  0  0  0  0  0  0
    3.6612   -1.9206    2.3205 Cl  0  0  0  0  0  0  0  0  0  0  0  0
    4.5017   -0.2060   -1.2237 C   0  0  0  0  0  0  0  0  0  0  0  0
    5.8913    0.4991   -1.9558 Cl  0  0  0  0  0  0  0  0  0  0  0  0
    1.0919   -1.9409    1.5542 H   0  0  0  0  0  0  0  0  0  0  0  0
   -0.0289    1.7365   -0.5584 H   0  0  0  0  0  0  0  0  0  0  0  0
   -2.2296    2.5257   -1.3596 H   0  0  0  0  0  0  0  0  0  0  0  0
   -4.1822   -0.5208    0.9791 H   0  0  0  0  0  0  0  0  0  0  0  0
   -2.7771   -1.8739    2.1939 H   0  0  0  0  0  0  0  0  0  0  0  0
   -4.6700    2.4045   -1.3341 H   0  0  0  0  0  0  0  0  0  0  0  0
   -5.2978    1.8412    0.2208 H   0  0  0  0  0  0  0  0  0  0  0  0
   -5.2500    0.7420   -1.1778 H   0  0  0  0  0  0  0  0  0  0  0  0
    1.3117   -1.1459   -1.8498 H   0  0  0  0  0  0  0  0  0  0  0  0
    3.2239    0.0521   -2.9075 H   0  0  0  0  0  0  0  0  0  0  0  0
    5.5914   -0.7332    0.6029 H   0  0  0  0  0  0  0  0  0  0  0  0
  1  2  1  0
  3  1  1  0
  3  4  1  0
  3  5  2  0
  4  6  2  0
  7  4  1  0
  6  8  1  0
  9  7  2  0
  7 10  1  0
  8 11  2  0
 11  9  1  0
 11 12  1  0
  2 13  2  0
 14  2  1  0
 13 15  1  0
 16 14  2  0
 14 17  1  0
 15 18  2  0
 18 16  1  0
 18 19  1  0
  1 20  1  0
  6 21  1  0
  8 22  1  0
  9 23  1  0
 10 24  1  0
 12 25  1  0
 12 26  1  0
 12 27  1  0
 13 28  1  0
 15 29  1  0
 16 30  1  0
M  END
$$$$

     RDKit          3D

 30 31  0  0  0  0  0  0  0  0999 V2000
   -0.7127   -0.7716    1.3063 N   0  0  0  0  0  0  0  0  0  0  0  0
   -1.9165   -0.8393    0.6455 C   0  0  0  0  0  0  0  0  0  0  0  0
   -0.1979    0.4442    1.6926 C   0  0  0  0  0  0  0  0  0  0  0  0
    0.8835    0.9726    0.8260 C   0  0  0  0  0  0  0  0  0  0  0  0
   -0.4922    1.0092    2.7424 O   0  0  0  0  0  0  0  0  0  0  0  0
    0.6369    1.2382   -0.4715 C   0  0  0  0  0  0  0  0  0  0  0  0
    2.2610    0.9911    1.3006 C   0  0  0  0  0  0  0  0  0  0  0  0
    1.7116    1.0819   -1.4403 C   0  0  0  0  0  0  0  0  0  0  0  0
    3.2708    0.9542    0.4142 C   0  0  0  0  0  0  0  0  0  0  0  0
    2.4915    1.1024    2.6539 O   0  0  0  0  0  0  0  0  0  0  0  0
    2.9868    0.9381   -1.0211 C   0  0  0  0  0  0  0  0  0  0  0  0
    4.1506    0.7857   -1.9505 C   0  0  0  0  0  0  0  0  0  0  0  0
   -3.0902   -0.6282    1.2726 C   0  0  0  0  0  0  0  0  0  0  0  0
   -1.9064   -1.4351   -0.6829 C   0  0  0  0  0  0  0  0  0  0  0  0
   -4.3325   -1.0886    0.6704 C   0  0  0  0  0  0  0  0  0  0  0  0
   -3.0584   -1.8346   -1.2535 C   0  0  0  0  0  0  0  0  0  0  0  0
   -4.3154   -1.6652   -0.5445 C   0  0  0  0  0  0  0  0  0  0  0  0
   -5.7635   -2.2104   -1.2960 Cl  0  0  0  0  0  0  0  0  0  0  0  0
   -0.6137   -1.4682    2.0375 H   0  0  0  0  0  0  0  0  0  0  0  0
   -0.3258    1.6036   -0.8122 H   0  0  0  0  0  0  0  0  0  0  0  0
    1.4525    1.0998   -2.4942 H   0  0  0  0  0  0  0  0  0  0  0  0
    4.3016    0.9843    0.7510 H   0  0  0  0  0  0  0  0  0  0  0  0
    1.6438    1.3155    3.0948 H   0  0  0  0  0  0  0  0  0  0  0  0
    4.8648    1.6043   -1.8118 H   0  0  0  0  0  0  0  0  0  0  0  0
    3.8359    0.7935   -2.9996 H   0  0  0  0  0  0  0  0  0  0  0  0
    4.6678   -0.1619   -1.7663 H   0  0  0  0  0  0  0  0  0  0  0  0
   -3.1533   -0.0459    2.1872 H   0  0  0  0  0  0  0  0  0  0  0  0
   -0.9583   -1.5493   -1.1985 H   0  0  0  0  0  0  0  0  0  0  0  0
   -5.2543   -0.9391    1.2222 H   0  0  0  0  0  0  0  0  0  0  0  0
   -3.0682   -2.2813   -2.2419 H   0  0  0  0  0  0  0  0  0  0  0  0
  1  2  1  0
  3  1  1  0
  3  4  1  0
  3  5  2  0
  4  6  2  0
  7  4  1  0
  6  8  1  0
  9  7  2  0
  7 10  1  0
  8 11  2  0
 11  9  1  0
 11 12  1  0
  2 13  2  0
 14  2  1  0
 13 15  1  0
 16 14  2  0
 15 17  2  0
 17 16  1  0
 17 18  1  0
  1 19  1  0
  6 20  1  0
  8 21  1  0
  9 22  1  0
 10 23  1  0
 12 24  1  0
 12 25  1  0
 12 26  1  0
 13 27  1  0
 14 28  1  0
 15 29  1  0
 16 30  1  0
M  END
$$$$

     RDKit          3D

 31 32  0  0  0  0  0  0  0  0999 V2000
   -1.1150   -0.3301   -0.8303 N   0  0  0  0  0  0  0  0  0  0  0  0
   -2.3978   -0.3304   -0.3256 C   0  0  0  0  0  0  0  0  0  0  0  0
   -0.1621   -1.2075   -0.3466 C   0  0  0  0  0  0  0  0  0  0  0  0
    1.1673   -0.5712   -0.1667 C   0  0  0  0  0  0  0  0  0  0  0  0
   -0.3465   -2.3994   -0.1303 O   0  0  0  0  0  0  0  0  0  0  0  0
    2.1094   -0.8522   -1.0886 C   0  0  0  0  0  0  0  0  0  0  0  0
    1.5302    0.1340    1.0526 C   0  0  0  0  0  0  0  0  0  0  0  0
    3.4998   -0.5152   -0.8281 C   0  0  0  0  0  0  0  0  0  0  0  0
    2.8163    0.4570    1.2873 C   0  0  0  0  0  0  0  0  0  0  0  0
    0.4986    0.4617    1.9012 O   0  0  0  0  0  0  0  0  0  0  0  0
    3.8514    0.1085    0.3149 C   0  0  0  0  0  0  0  0  0  0  0  0
    5.2653    0.4717    0.6507 C   0  0  0  0  0  0  0  0  0  0  0  0
   -3.3257   -1.1519   -0.8534 C   0  0  0  0  0  0  0  0  0  0  0  0
   -2.8431    0.8508    0.4175 C   0  0  0  0  0  0  0  0  0  0  0  0
   -4.7002   -0.7003   -0.9990 C   0  0  0  0  0  0  0  0  0  0  0  0
   -4.1351    1.2394    0.3602 C   0  0  0  0  0  0  0  0  0  0  0  0
   -1.8898    1.5185    1.1571 O   0  0  0  0  0  0  0  0  0  0  0  0
   -5.8745   -1.7699   -1.9724 Br  0  0  0  0  0  0  0  0  0  0  0  0
   -5.0864    0.4496   -0.4146 C   0  0  0  0  0  0  0  0  0  0  0  0
   -4.8018    2.7404    1.2505 Br  0  0  0  0  0  0  0  0  0  0  0  0
   -0.7787    0.5751   -1.1444 H   0  0  0  0  0  0  0  0  0  0  0  0
    1.8862   -1.4367   -1.9766 H   0  0  0  0  0  0  0  0  0  0  0  0
    4.2355   -0.7997   -1.5746 H   0  0  0  0  0  0  0  0  0  0  0  0
    3.1185    0.9910    2.1817 H   0  0  0  0  0  0  0  0  0  0  0  0
    0.8911    0.8292    2.7158 H   0  0  0  0  0  0  0  0  0  0  0  0
    5.5791   -0.0205    1.5774 H   0  0  0  0  0  0  0  0  0  0  0  0
    5.3636    1.5546    0.7816 H   0  0  0  0  0  0  0  0  0  0  0  0
    5.9615    0.1682   -0.1385 H   0  0  0  0  0  0  0  0  0  0  0  0
   -3.0787   -2.1839   -1.0854 H   0  0  0  0  0  0  0  0  0  0  0  0
   -1.1294    0.9146    1.2905 H   0  0  0  0  0  0  0  0  0  0  0  0
   -6.1086    0.8047   -0.4979 H   0  0  0  0  0  0  0  0  0  0  0  0
  1  2  1  0
  3  1  1  0
  3  4  1  0
  3  5  2  0
  4  6  2  0
  7  4  1  0
  6  8  1  0
  9  7  2  0
  7 10  1  0
  8 11  2  0
 11  9  1  0
 11 12  1  0
  2 13  2  0
 14  2  1  0
 13 15  1  0
 16 14  2  0
 14 17  1  0
 15 18  1  0
 15 19  2  0
 19 16  1  0
 16 20  1  0
  1 21  1  0
  6 22  1  0
  8 23  1  0
  9 24  1  0
 10 25  1  0
 12 26  1  0
 12 27  1  0
 12 28  1  0
 13 29  1  0
 17 30  1  0
 19 31  1  0
M  END
$$$$

     RDKit          3D

 30 31  0  0  0  0  0  0  0  0999 V2000
    0.6457   -0.5425   -1.5484 N   0  0  0  0  0  0  0  0  0  0  0  0
    1.8814   -0.5736   -0.9463 C   0  0  0  0  0  0  0  0  0  0  0  0
    0.0087    0.6570   -1.7665 C   0  0  0  0  0  0  0  0  0  0  0  0
   -1.0361    1.0002   -0.7723 C   0  0  0  0  0  0  0  0  0  0  0  0
    0.1748    1.3473   -2.7680 O   0  0  0  0  0  0  0  0  0  0  0  0
   -0.6844    1.2369    0.5063 C   0  0  0  0  0  0  0  0  0  0  0  0
   -2.4454    0.8300   -1.0967 C   0  0  0  0  0  0  0  0  0  0  0  0
   -1.6061    0.8688    1.5708 C   0  0  0  0  0  0  0  0  0  0  0  0
   -3.3307    0.5933   -0.1133 C   0  0  0  0  0  0  0  0  0  0  0  0
   -2.8425    0.9733   -2.4074 O   0  0  0  0  0  0  0  0  0  0  0  0
   -2.8853    0.5501    1.2799 C   0  0  0  0  0  0  0  0  0  0  0  0
   -3.8996    0.1734    2.3151 C   0  0  0  0  0  0  0  0  0  0  0  0
    3.0034   -0.2059   -1.5941 C   0  0  0  0  0  0  0  0  0  0  0  0
    1.9825   -1.2925    0.3142 C   0  0  0  0  0  0  0  0  0  0  0  0
    4.3034   -0.6321   -1.0993 C   0  0  0  0  0  0  0  0  0  0  0  0
    3.1874   -1.6572    0.7905 C   0  0  0  0  0  0  0  0  0  0  0  0
    4.3977   -1.3279    0.0501 C   0  0  0  0  0  0  0  0  0  0  0  0
    6.0320   -1.8905    0.7457 Br  0  0  0  0  0  0  0  0  0  0  0  0
    0.5744   -1.1547   -2.3543 H   0  0  0  0  0  0  0  0  0  0  0  0
    0.2514    1.7194    0.7665 H   0  0  0  0  0  0  0  0  0  0  0  0
   -1.2332    0.8748    2.5901 H   0  0  0  0  0  0  0  0  0  0  0  0
   -4.3861    0.4803   -0.3363 H   0  0  0  0  0  0  0  0  0  0  0  0
   -2.0967    1.3499   -2.9161 H   0  0  0  0  0  0  0  0  0  0  0  0
   -4.2841   -0.8347    2.1264 H   0  0  0  0  0  0  0  0  0  0  0  0
   -3.4735    0.1844    3.3238 H   0  0  0  0  0  0  0  0  0  0  0  0
   -4.7414    0.8739    2.3029 H   0  0  0  0  0  0  0  0  0  0  0  0
    2.9786    0.4774   -2.4377 H   0  0  0  0  0  0  0  0  0  0  0  0
    1.0727   -1.5260    0.8581 H   0  0  0  0  0  0  0  0  0  0  0  0
    5.1798   -0.3581   -1.6771 H   0  0  0  0  0  0  0  0  0  0  0  0
    3.2713   -2.1949    1.7290 H   0  0  0  0  0  0  0  0  0  0  0  0
  1  2  1  0
  3  1  1  0
  3  4  1  0
  3  5  2  0
  4  6  2  0
  7  4  1  0
  6  8  1  0
  9  7  2  0
  7 10  1  0
  8 11  2  0
 11  9  1  0
 11 12  1  0
  2 13  2  0
 14  2  1  0
 13 15  1  0
 16 14  2  0
 15 17  2  0
 17 16  1  0
 17 18  1  0
  1 19  1  0
  6 20  1  0
  8 21  1  0
  9 22  1  0
 10 23  1  0
 12 24  1  0
 12 25  1  0
 12 26  1  0
 13 27  1  0
 14 28  1  0
 15 29  1  0
 16 30  1  0
M  END
$$$$

     RDKit          3D

 31 32  0  0  0  0  0  0  0  0999 V2000
   -1.3096   -0.8162   -0.7931 N   0  0  0  0  0  0  0  0  0  0  0  0
   -2.2372    0.1505   -0.4483 C   0  0  0  0  0  0  0  0  0  0  0  0
   -0.3349   -0.5341   -1.7303 C   0  0  0  0  0  0  0  0  0  0  0  0
    1.0314   -0.4681   -1.1549 C   0  0  0  0  0  0  0  0  0  0  0  0
   -0.5446   -0.4731   -2.9367 O   0  0  0  0  0  0  0  0  0  0  0  0
    1.8130   -1.5553   -1.3090 C   0  0  0  0  0  0  0  0  0  0  0  0
    1.5275    0.6807   -0.4134 C   0  0  0  0  0  0  0  0  0  0  0  0
    3.0812   -1.6403   -0.6024 C   0  0  0  0  0  0  0  0  0  0  0  0
    2.7220    0.6193    0.2049 C   0  0  0  0  0  0  0  0  0  0  0  0
    0.7082    1.7797   -0.3713 O   0  0  0  0  0  0  0  0  0  0  0  0
    3.5303   -0.5968    0.1247 C   0  0  0  0  0  0  0  0  0  0  0  0
    4.8329   -0.6101    0.8638 C   0  0  0  0  0  0  0  0  0  0  0  0
   -3.2404    0.4864   -1.2847 C   0  0  0  0  0  0  0  0  0  0  0  0
   -2.3912    0.4470    0.9775 C   0  0  0  0  0  0  0  0  0  0  0  0
   -4.5471    0.8399   -0.7522 C   0  0  0  0  0  0  0  0  0  0  0  0
   -3.5754    0.8499    1.4672 C   0  0  0  0  0  0  0  0  0  0  0  0
   -1.2850    0.3022    1.7826 O   0  0  0  0  0  0  0  0  0  0  0  0
   -4.7076    1.0162    0.5718 C   0  0  0  0  0  0  0  0  0  0  0  0
   -1.7470   -1.7123   -0.9809 H   0  0  0  0  0  0  0  0  0  0  0  0
    1.5889   -2.3184   -2.0485 H   0  0  0  0  0  0  0  0  0  0  0  0
    3.6534   -2.5576   -0.7021 H   0  0  0  0  0  0  0  0  0  0  0  0
    3.1153    1.4570    0.7706 H   0  0  0  0  0  0  0  0  0  0  0  0
    1.1600    2.4914    0.1132 H   0  0  0  0  0  0  0  0  0  0  0  0
    4.6679   -0.4603    1.9359 H   0  0  0  0  0  0  0  0  0  0  0  0
    5.3615   -1.5613    0.7391 H   0  0  0  0  0  0  0  0  0  0  0  0
    5.4908    0.1857    0.4987 H   0  0  0  0  0  0  0  0  0  0  0  0
   -3.0740    0.5947   -2.3522 H   0  0  0  0  0  0  0  0  0  0  0  0
   -5.3686    0.9754   -1.4474 H   0  0  0  0  0  0  0  0  0  0  0  0
   -3.7010    1.0707    2.5207 H   0  0  0  0  0  0  0  0  0  0  0  0
   -0.5541    0.0640    1.1828 H   0  0  0  0  0  0  0  0  0  0  0  0
   -5.6666    1.2933    0.9961 H   0  0  0  0  0  0  0  0  0  0  0  0
  1  2  1  0
  3  1  1  0
  3  4  1  0
  3  5  2  0
  4  6  2  0
  7  4  1  0
  6  8  1  0
  9  7  2  0
  7 10  1  0
  8 11  2  0
 11  9  1  0
 11 12  1  0
  2 13  2  0
 14  2  1  0
 13 15  1  0
 16 14  2  0
 14 17  1  0
 15 18  2  0
 18 16  1  0
  1 19  1  0
  6 20  1  0
  8 21  1  0
  9 22  1  0
 10 23  1  0
 12 24  1  0
 12 25  1  0
 12 26  1  0
 13 27  1  0
 15 28  1  0
 16 29  1  0
 17 30  1  0
 18 31  1  0
M  END
$$$$

     RDKit          3D

 34 35  0  0  0  0  0  0  0  0999 V2000
    0.5212    1.1209    1.2936 N   0  0  0  0  0  0  0  0  0  0  0  0
    1.3258    0.1808    0.6763 C   0  0  0  0  0  0  0  0  0  0  0  0
   -0.4894    0.7122    2.1350 C   0  0  0  0  0  0  0  0  0  0  0  0
   -1.8187    0.5863    1.4898 C   0  0  0  0  0  0  0  0  0  0  0  0
   -0.3360    0.4541    3.3237 O   0  0  0  0  0  0  0  0  0  0  0  0
   -2.3722    1.6891    0.9473 C   0  0  0  0  0  0  0  0  0  0  0  0
   -2.3019   -0.7216    1.0713 C   0  0  0  0  0  0  0  0  0  0  0  0
   -3.0402    1.5776   -0.3410 C   0  0  0  0  0  0  0  0  0  0  0  0
   -3.0166   -0.8332   -0.0615 C   0  0  0  0  0  0  0  0  0  0  0  0
   -2.0429   -1.8073    1.8758 O   0  0  0  0  0  0  0  0  0  0  0  0
   -3.3466    0.3610   -0.8404 C   0  0  0  0  0  0  0  0  0  0  0  0
   -4.0350    0.1553   -2.1540 C   0  0  0  0  0  0  0  0  0  0  0  0
    2.2552   -0.5060    1.3701 C   0  0  0  0  0  0  0  0  0  0  0  0
    1.4629    0.2652   -0.7775 C   0  0  0  0  0  0  0  0  0  0  0  0
    3.4999   -0.9038    0.7313 C   0  0  0  0  0  0  0  0  0  0  0  0
    2.5802   -0.1674   -1.3845 C   0  0  0  0  0  0  0  0  0  0  0  0
    0.4145    0.7930   -1.4953 O   0  0  0  0  0  0  0  0  0  0  0  0
    3.6654   -0.7475   -0.5980 C   0  0  0  0  0  0  0  0  0  0  0  0
    4.9090   -1.1476   -1.3286 C   0  0  0  0  0  0  0  0  0  0  0  0
    1.0614    1.8764    1.7043 H   0  0  0  0  0  0  0  0  0  0  0  0
   -2.3752    2.6448    1.4602 H   0  0  0  0  0  0  0  0  0  0  0  0
   -3.2878    2.4933   -0.8692 H   0  0  0  0  0  0  0  0  0  0  0  0
   -3.3904   -1.7989   -0.3855 H   0  0  0  0  0  0  0  0  0  0  0  0
   -1.6271   -1.4925    2.7020 H   0  0  0  0  0  0  0  0  0  0  0  0
   -3.4069   -0.4377   -2.8273 H   0  0  0  0  0  0  0  0  0  0  0  0
   -4.9859   -0.3695   -2.0141 H   0  0  0  0  0  0  0  0  0  0  0  0
   -4.2502    1.1064   -2.6528 H   0  0  0  0  0  0  0  0  0  0  0  0
    2.0792   -0.8338    2.3899 H   0  0  0  0  0  0  0  0  0  0  0  0
    4.2711   -1.3423    1.3563 H   0  0  0  0  0  0  0  0  0  0  0  0
    2.6800   -0.1054   -2.4627 H   0  0  0  0  0  0  0  0  0  0  0  0
   -0.3064    0.9521   -0.8603 H   0  0  0  0  0  0  0  0  0  0  0  0
    5.3674   -0.2778   -1.8111 H   0  0  0  0  0  0  0  0  0  0  0  0
    5.6537   -1.5833   -0.6535 H   0  0  0  0  0  0  0  0  0  0  0  0
    4.6826   -1.8930   -2.0986 H   0  0  0  0  0  0  0  0  0  0  0  0
  1  2  1  0
  3  1  1  0
  3  4  1  0
  3  5  2  0
  4  6  2  0
  7  4  1  0
  6  8  1  0
  9  7  2  0
  7 10  1  0
  8 11  2  0
 11  9  1  0
 11 12  1  0
  2 13  2  0
 14  2  1  0
 13 15  1  0
 16 14  2  0
 14 17  1  0
 15 18  2  0
 18 16  1  0
 18 19  1  0
  1 20  1  0
  6 21  1  0
  8 22  1  0
  9 23  1  0
 10 24  1  0
 12 25  1  0
 12 26  1  0
 12 27  1  0
 13 28  1  0
 15 29  1  0
 16 30  1  0
 17 31  1  0
 19 32  1  0
 19 33  1  0
 19 34  1  0
M  END
$$$$

     RDKit          3D

 30 31  0  0  0  0  0  0  0  0999 V2000
   -0.9085    1.8091   -0.2547 N   0  0  0  0  0  0  0  0  0  0  0  0
   -2.1292    1.2039   -0.0672 C   0  0  0  0  0  0  0  0  0  0  0  0
   -0.0124    1.2983   -1.1707 C   0  0  0  0  0  0  0  0  0  0  0  0
    0.9287    0.3059   -0.5843 C   0  0  0  0  0  0  0  0  0  0  0  0
    0.0256    1.6258   -2.3518 O   0  0  0  0  0  0  0  0  0  0  0  0
    0.9675   -0.9168   -1.1493 C   0  0  0  0  0  0  0  0  0  0  0  0
    1.9368    0.6808    0.3970 C   0  0  0  0  0  0  0  0  0  0  0  0
    2.1215   -1.7749   -0.9339 C   0  0  0  0  0  0  0  0  0  0  0  0
    2.9819   -0.1350    0.6341 C   0  0  0  0  0  0  0  0  0  0  0  0
    1.7264    1.8638    1.0677 O   0  0  0  0  0  0  0  0  0  0  0  0
    3.0998   -1.4052   -0.0819 C   0  0  0  0  0  0  0  0  0  0  0  0
    4.3166   -2.2372    0.1821 C   0  0  0  0  0  0  0  0  0  0  0  0
   -3.1625    1.4303   -0.9014 C   0  0  0  0  0  0  0  0  0  0  0  0
   -2.3434    0.4010    1.1289 C   0  0  0  0  0  0  0  0  0  0  0  0
   -4.4640    0.8388   -0.6296 C   0  0  0  0  0  0  0  0  0  0  0  0
   -3.5458   -0.1372    1.3900 C   0  0  0  0  0  0  0  0  0  0  0  0
   -1.3146    0.2158    1.9821 F   0  0  0  0  0  0  0  0  0  0  0  0
   -4.6483    0.0841    0.4692 C   0  0  0  0  0  0  0  0  0  0  0  0
   -0.4507    2.1316    0.5952 H   0  0  0  0  0  0  0  0  0  0  0  0
    0.1990   -1.2507   -1.8395 H   0  0  0  0  0  0  0  0  0  0  0  0
    2.1650   -2.7074   -1.4881 H   0  0  0  0  0  0  0  0  0  0  0  0
    3.7432    0.1087    1.3668 H   0  0  0  0  0  0  0  0  0  0  0  0
    2.4831    2.0068    1.6631 H   0  0  0  0  0  0  0  0  0  0  0  0
    4.3749   -2.5085    1.2416 H   0  0  0  0  0  0  0  0  0  0  0  0
    4.3080   -3.1660   -0.3984 H   0  0  0  0  0  0  0  0  0  0  0  0
    5.2245   -1.6864   -0.0860 H   0  0  0  0  0  0  0  0  0  0  0  0
   -3.0363    2.0023   -1.8158 H   0  0  0  0  0  0  0  0  0  0  0  0
   -5.2677    1.0190   -1.3361 H   0  0  0  0  0  0  0  0  0  0  0  0
   -3.7105   -0.7318    2.2801 H   0  0  0  0  0  0  0  0  0  0  0  0
   -5.6088   -0.3692    0.6907 H   0  0  0  0  0  0  0  0  0  0  0  0
  1  2  1  0
  3  1  1  0
  3  4  1  0
  3  5  2  0
  4  6  2  0
  7  4  1  0
  6  8  1  0
  9  7  2  0
  7 10  1  0
  8 11  2  0
 11  9  1  0
 11 12  1  0
  2 13  2  0
 14  2  1  0
 13 15  1  0
 16 14  2  0
 14 17  1  0
 15 18  2  0
 18 16  1  0
  1 19  1  0
  6 20  1  0
  8 21  1  0
  9 22  1  0
 10 23  1  0
 12 24  1  0
 12 25  1  0
 12 26  1  0
 13 27  1  0
 15 28  1  0
 16 29  1  0
 18 30  1  0
M  END
$$$$

     RDKit          3D

 30 31  0  0  0  0  0  0  0  0999 V2000
   -0.7337    1.6816    0.0947 N   0  0  0  0  0  0  0  0  0  0  0  0
   -1.8499    1.0656   -0.4183 C   0  0  0  0  0  0  0  0  0  0  0  0
   -0.2405    1.3277    1.3288 C   0  0  0  0  0  0  0  0  0  0  0  0
    0.8271    0.2990    1.3058 C   0  0  0  0  0  0  0  0  0  0  0  0
   -0.5502    1.8938    2.3728 O   0  0  0  0  0  0  0  0  0  0  0  0
    0.5221   -0.9637    0.9515 C   0  0  0  0  0  0  0  0  0  0  0  0
    2.2256    0.6752    1.4516 C   0  0  0  0  0  0  0  0  0  0  0  0
    1.5368   -1.7809    0.3063 C   0  0  0  0  0  0  0  0  0  0  0  0
    3.1846   -0.1189    0.9442 C   0  0  0  0  0  0  0  0  0  0  0  0
    2.5319    1.8091    2.1712 O   0  0  0  0  0  0  0  0  0  0  0  0
    2.8246   -1.3772    0.2900 C   0  0  0  0  0  0  0  0  0  0  0  0
    3.9294   -2.1678   -0.3356 C   0  0  0  0  0  0  0  0  0  0  0  0
   -3.0805    1.2457    0.1010 C   0  0  0  0  0  0  0  0  0  0  0  0
   -1.6905    0.3519   -1.6783 C   0  0  0  0  0  0  0  0  0  0  0  0
   -4.2476    0.7328   -0.6009 C   0  0  0  0  0  0  0  0  0  0  0  0
   -2.7716   -0.1230   -2.3247 C   0  0  0  0  0  0  0  0  0  0  0  0
   -4.0888    0.0757   -1.7603 C   0  0  0  0  0  0  0  0  0  0  0  0
   -5.1494   -0.4236   -2.4229 F   0  0  0  0  0  0  0  0  0  0  0  0
   -0.7265    2.6878   -0.0401 H   0  0  0  0  0  0  0  0  0  0  0  0
   -0.4572   -1.3935    1.1308 H   0  0  0  0  0  0  0  0  0  0  0  0
    1.2229   -2.7175   -0.1428 H   0  0  0  0  0  0  0  0  0  0  0  0
    4.2322    0.1356    1.0658 H   0  0  0  0  0  0  0  0  0  0  0  0
    1.7340    2.0895    2.6620 H   0  0  0  0  0  0  0  0  0  0  0  0
    4.6853   -2.4316    0.4132 H   0  0  0  0  0  0  0  0  0  0  0  0
    3.5614   -3.0988   -0.7801 H   0  0  0  0  0  0  0  0  0  0  0  0
    4.4155   -1.5884   -1.1280 H   0  0  0  0  0  0  0  0  0  0  0  0
   -3.2330    1.6974    1.0766 H   0  0  0  0  0  0  0  0  0  0  0  0
   -0.6916    0.2043   -2.0753 H   0  0  0  0  0  0  0  0  0  0  0  0
   -5.2300    0.8761   -0.1688 H   0  0  0  0  0  0  0  0  0  0  0  0
   -2.6925   -0.6640   -3.2602 H   0  0  0  0  0  0  0  0  0  0  0  0
  1  2  1  0
  3  1  1  0
  3  4  1  0
  3  5  2  0
  4  6  2  0
  7  4  1  0
  6  8  1  0
  9  7  2  0
  7 10  1  0
  8 11  2  0
 11  9  1  0
 11 12  1  0
  2 13  2  0
 14  2  1  0
 13 15  1  0
 16 14  2  0
 15 17  2  0
 17 16  1  0
 17 18  1  0
  1 19  1  0
  6 20  1  0
  8 21  1  0
  9 22  1  0
 10 23  1  0
 12 24  1  0
 12 25  1  0
 12 26  1  0
 13 27  1  0
 14 28  1  0
 15 29  1  0
 16 30  1  0
M  END
$$$$

     RDKit          3D

 30 31  0  0  0  0  0  0  0  0999 V2000
    1.3044   -1.2929   -0.3336 N   0  0  0  0  0  0  0  0  0  0  0  0
    2.2929   -0.3394   -0.3074 C   0  0  0  0  0  0  0  0  0  0  0  0
    0.3764   -1.3609    0.6824 C   0  0  0  0  0  0  0  0  0  0  0  0
   -0.8860   -0.6499    0.3676 C   0  0  0  0  0  0  0  0  0  0  0  0
    0.5607   -1.9623    1.7346 O   0  0  0  0  0  0  0  0  0  0  0  0
   -1.0869    0.5408    0.9662 C   0  0  0  0  0  0  0  0  0  0  0  0
   -1.9670   -1.2840   -0.3712 C   0  0  0  0  0  0  0  0  0  0  0  0
   -2.4071    1.1494    0.9444 C   0  0  0  0  0  0  0  0  0  0  0  0
   -3.1848   -0.7095   -0.4074 C   0  0  0  0  0  0  0  0  0  0  0  0
   -1.6616   -2.4566   -1.0203 O   0  0  0  0  0  0  0  0  0  0  0  0
   -3.4245    0.5544    0.2887 C   0  0  0  0  0  0  0  0  0  0  0  0
   -4.8085    1.1235    0.2308 C   0  0  0  0  0  0  0  0  0  0  0  0
    2.3392    0.6259   -1.2446 C   0  0  0  0  0  0  0  0  0  0  0  0
    3.4443   -0.5568    0.5579 C   0  0  0  0  0  0  0  0  0  0  0  0
    3.5845    1.3295   -1.5043 C   0  0  0  0  0  0  0  0  0  0  0  0
    4.5838    0.1271    0.3474 C   0  0  0  0  0  0  0  0  0  0  0  0
    4.6637    1.0889   -0.7386 C   0  0  0  0  0  0  0  0  0  0  0  0
    1.6232   -2.2155   -0.6057 H   0  0  0  0  0  0  0  0  0  0  0  0
   -0.2963    1.0471    1.5114 H   0  0  0  0  0  0  0  0  0  0  0  0
   -2.5381    2.0861    1.4773 H   0  0  0  0  0  0  0  0  0  0  0  0
   -4.0092   -1.1546   -0.9530 H   0  0  0  0  0  0  0  0  0  0  0  0
   -2.4734   -2.7926   -1.4354 H   0  0  0  0  0  0  0  0  0  0  0  0
   -4.8840    2.0661    0.7834 H   0  0  0  0  0  0  0  0  0  0  0  0
   -5.5304    0.4246    0.6665 H   0  0  0  0  0  0  0  0  0  0  0  0
   -5.0995    1.3224   -0.8061 H   0  0  0  0  0  0  0  0  0  0  0  0
    1.4574    0.9158   -1.8058 H   0  0  0  0  0  0  0  0  0  0  0  0
    3.3574   -1.2638    1.3773 H   0  0  0  0  0  0  0  0  0  0  0  0
    3.6138    2.0472   -2.3168 H   0  0  0  0  0  0  0  0  0  0  0  0
    5.4517   -0.0132    0.9823 H   0  0  0  0  0  0  0  0  0  0  0  0
    5.6039    1.6031   -0.9066 H   0  0  0  0  0  0  0  0  0  0  0  0
  1  2  1  0
  3  1  1  0
  3  4  1  0
  3  5  2  0
  4  6  2  0
  7  4  1  0
  6  8  1  0
  9  7  2  0
  7 10  1  0
  8 11  2  0
 11  9  1  0
 11 12  1  0
  2 13  2  0
 14  2  1  0
 13 15  1  0
 16 14  2  0
 15 17  2  0
 17 16  1  0
  1 18  1  0
  6 19  1  0
  8 20  1  0
  9 21  1  0
 10 22  1  0
 12 23  1  0
 12 24  1  0
 12 25  1  0
 13 26  1  0
 14 27  1  0
 15 28  1  0
 16 29  1  0
 17 30  1  0
M  END
$$$$

     RDKit          3D

 30 31  0  0  0  0  0  0  0  0999 V2000
    0.9183   -1.0147   -0.6575 N   0  0  0  0  0  0  0  0  0  0  0  0
    2.1147   -0.8068   -0.0101 C   0  0  0  0  0  0  0  0  0  0  0  0
    0.4222   -0.0731   -1.5328 C   0  0  0  0  0  0  0  0  0  0  0  0
   -0.8409    0.5760   -1.1010 C   0  0  0  0  0  0  0  0  0  0  0  0
    0.8872    0.1644   -2.6441 O   0  0  0  0  0  0  0  0  0  0  0  0
   -0.8646    1.2836    0.0447 C   0  0  0  0  0  0  0  0  0  0  0  0
   -2.1021    0.2027   -1.7264 C   0  0  0  0  0  0  0  0  0  0  0  0
   -2.0679    1.2595    0.8626 C   0  0  0  0  0  0  0  0  0  0  0  0
   -3.2430    0.2781   -1.0197 C   0  0  0  0  0  0  0  0  0  0  0  0
   -2.0937   -0.1783   -3.0492 O   0  0  0  0  0  0  0  0  0  0  0  0
   -3.2209    0.7713    0.3577 C   0  0  0  0  0  0  0  0  0  0  0  0
   -4.5051    0.7248    1.1258 C   0  0  0  0  0  0  0  0  0  0  0  0
    3.2950   -0.9793   -0.6391 C   0  0  0  0  0  0  0  0  0  0  0  0
    2.1029   -0.5898    1.4328 C   0  0  0  0  0  0  0  0  0  0  0  0
    4.5389   -0.9235    0.1153 C   0  0  0  0  0  0  0  0  0  0  0  0
    3.2468   -0.5425    2.1337 C   0  0  0  0  0  0  0  0  0  0  0  0
    0.9157   -0.4522    2.0585 F   0  0  0  0  0  0  0  0  0  0  0  0
    4.5048   -0.7112    1.4406 C   0  0  0  0  0  0  0  0  0  0  0  0
    5.6428   -0.6526    2.1586 F   0  0  0  0  0  0  0  0  0  0  0  0
    0.2148   -1.5067   -0.1141 H   0  0  0  0  0  0  0  0  0  0  0  0
   -0.0300    1.9011    0.3590 H   0  0  0  0  0  0  0  0  0  0  0  0
   -2.0046    1.6563    1.8711 H   0  0  0  0  0  0  0  0  0  0  0  0
   -4.1925    0.0171   -1.4752 H   0  0  0  0  0  0  0  0  0  0  0  0
   -1.2009   -0.0124   -3.4156 H   0  0  0  0  0  0  0  0  0  0  0  0
   -4.3862    1.1214    2.1398 H   0  0  0  0  0  0  0  0  0  0  0  0
   -4.8637   -0.3064    1.2127 H   0  0  0  0  0  0  0  0  0  0  0  0
   -5.2759    1.3199    0.6247 H   0  0  0  0  0  0  0  0  0  0  0  0
    3.3533   -1.0918   -1.7180 H   0  0  0  0  0  0  0  0  0  0  0  0
    5.4792   -1.0472   -0.4094 H   0  0  0  0  0  0  0  0  0  0  0  0
    3.2553   -0.3879    3.2044 H   0  0  0  0  0  0  0  0  0  0  0  0
  1  2  1  0
  3  1  1  0
  3  4  1  0
  3  5  2  0
  4  6  2  0
  7  4  1  0
  6  8  1  0
  9  7  2  0
  7 10  1  0
  8 11  2  0
 11  9  1  0
 11 12  1  0
  2 13  2  0
 14  2  1  0
 13 15  1  0
 16 14  2  0
 14 17  1  0
 15 18  2  0
 18 16  1  0
 18 19  1  0
  1 20  1  0
  6 21  1  0
  8 22  1  0
  9 23  1  0
 10 24  1  0
 12 25  1  0
 12 26  1  0
 12 27  1  0
 13 28  1  0
 15 29  1  0
 16 30  1  0
M  END
$$$$

     RDKit          3D

 33 34  0  0  0  0  0  0  0  0999 V2000
   -0.8834    0.8390   -0.6128 C   0  0  0  0  0  0  0  0  0  0  0  0
   -2.3026    0.4027   -0.7146 C   0  0  0  0  0  0  0  0  0  0  0  0
   -0.4815    1.1132    0.6688 N   0  0  0  0  0  0  0  0  0  0  0  0
   -0.1765    0.9913   -1.6036 O   0  0  0  0  0  0  0  0  0  0  0  0
   -0.2133    0.0352    1.4648 C   0  0  0  0  0  0  0  0  0  0  0  0
    1.1956   -0.4253    1.4278 C   0  0  0  0  0  0  0  0  0  0  0  0
   -1.0417   -0.4509    2.2281 O   0  0  0  0  0  0  0  0  0  0  0  0
    2.0336    0.1158    2.3339 C   0  0  0  0  0  0  0  0  0  0  0  0
    1.7419   -1.1536    0.2944 C   0  0  0  0  0  0  0  0  0  0  0  0
    3.4399    0.2754    2.0000 C   0  0  0  0  0  0  0  0  0  0  0  0
    3.0590   -1.0797    0.0225 C   0  0  0  0  0  0  0  0  0  0  0  0
    0.8499   -1.8963   -0.4397 O   0  0  0  0  0  0  0  0  0  0  0  0
    3.9436   -0.2964    0.8865 C   0  0  0  0  0  0  0  0  0  0  0  0
    5.3807   -0.1839    0.4814 C   0  0  0  0  0  0  0  0  0  0  0  0
   -2.5395   -0.7960   -1.2829 C   0  0  0  0  0  0  0  0  0  0  0  0
   -3.3965    1.3432   -0.5294 C   0  0  0  0  0  0  0  0  0  0  0  0
   -3.7942   -1.0247   -1.9936 C   0  0  0  0  0  0  0  0  0  0  0  0
   -4.5865    1.1074   -1.1119 C   0  0  0  0  0  0  0  0  0  0  0  0
   -3.1385    2.4187    0.2868 O   0  0  0  0  0  0  0  0  0  0  0  0
   -4.0628   -2.7532   -3.0848 I   0  0  0  0  0  0  0  0  0  0  0  0
   -4.7733   -0.0995   -1.9071 C   0  0  0  0  0  0  0  0  0  0  0  0
   -1.1599    1.7138    1.1231 H   0  0  0  0  0  0  0  0  0  0  0  0
    1.7053    0.3637    3.3380 H   0  0  0  0  0  0  0  0  0  0  0  0
    4.0593    0.8526    2.6793 H   0  0  0  0  0  0  0  0  0  0  0  0
    3.4987   -1.6074   -0.8163 H   0  0  0  0  0  0  0  0  0  0  0  0
    1.3176   -2.2348   -1.2224 H   0  0  0  0  0  0  0  0  0  0  0  0
    5.8455   -1.1743    0.4317 H   0  0  0  0  0  0  0  0  0  0  0  0
    5.4669    0.2903   -0.5021 H   0  0  0  0  0  0  0  0  0  0  0  0
    5.9573    0.4181    1.1919 H   0  0  0  0  0  0  0  0  0  0  0  0
   -1.8350   -1.6146   -1.1738 H   0  0  0  0  0  0  0  0  0  0  0  0
   -5.4355    1.7711   -0.9967 H   0  0  0  0  0  0  0  0  0  0  0  0
   -3.9454    2.9629    0.3280 H   0  0  0  0  0  0  0  0  0  0  0  0
   -5.7287   -0.2237   -2.4076 H   0  0  0  0  0  0  0  0  0  0  0  0
  1  2  1  0
  1  3  1  0
  1  4  2  0
  5  3  1  0
  5  6  1  0
  5  7  2  0
  6  8  2  0
  9  6  1  0
  8 10  1  0
 11  9  2  0
  9 12  1  0
 10 13  2  0
 13 11  1  0
 13 14  1  0
  2 15  2  0
 16  2  1  0
 15 17  1  0
 18 16  2  0
 16 19  1  0
 17 20  1  0
 17 21  2  0
 21 18  1  0
  3 22  1  0
  8 23  1  0
 10 24  1  0
 11 25  1  0
 12 26  1  0
 14 27  1  0
 14 28  1  0
 14 29  1  0
 15 30  1  0
 18 31  1  0
 19 32  1  0
 21 33  1  0
M  END
$$$$

     RDKit          3D

 32 33  0  0  0  0  0  0  0  0999 V2000
   -1.3550   -1.3363    0.6491 C   0  0  0  0  0  0  0  0  0  0  0  0
   -2.8162   -1.0801    0.6644 C   0  0  0  0  0  0  0  0  0  0  0  0
   -0.7369   -1.0192   -0.5257 N   0  0  0  0  0  0  0  0  0  0  0  0
   -0.7817   -1.8801    1.5861 O   0  0  0  0  0  0  0  0  0  0  0  0
   -0.1829    0.2315   -0.6013 C   0  0  0  0  0  0  0  0  0  0  0  0
    1.1980    0.3171   -0.0470 C   0  0  0  0  0  0  0  0  0  0  0  0
   -0.7464    1.1946   -1.1103 O   0  0  0  0  0  0  0  0  0  0  0  0
    1.4569    1.3115    0.8244 C   0  0  0  0  0  0  0  0  0  0  0  0
    2.3023   -0.4438   -0.6162 C   0  0  0  0  0  0  0  0  0  0  0  0
    2.8227    1.7779    1.0021 C   0  0  0  0  0  0  0  0  0  0  0  0
    3.5729   -0.0512   -0.4040 C   0  0  0  0  0  0  0  0  0  0  0  0
    1.9602   -1.5757   -1.3214 O   0  0  0  0  0  0  0  0  0  0  0  0
    3.8485    1.1317    0.4111 C   0  0  0  0  0  0  0  0  0  0  0  0
    5.2774    1.5576    0.5519 C   0  0  0  0  0  0  0  0  0  0  0  0
   -3.5868   -1.9966    0.0428 C   0  0  0  0  0  0  0  0  0  0  0  0
   -3.3714    0.2351    0.9714 C   0  0  0  0  0  0  0  0  0  0  0  0
   -4.7407   -1.5471   -0.7178 C   0  0  0  0  0  0  0  0  0  0  0  0
   -4.5081    0.6171    0.3538 C   0  0  0  0  0  0  0  0  0  0  0  0
   -2.5458    1.3051    2.2572 Br  0  0  0  0  0  0  0  0  0  0  0  0
   -5.1792   -0.2838   -0.5722 C   0  0  0  0  0  0  0  0  0  0  0  0
   -0.0439   -1.7234   -0.7587 H   0  0  0  0  0  0  0  0  0  0  0  0
    0.6661    1.8252    1.3619 H   0  0  0  0  0  0  0  0  0  0  0  0
    2.9766    2.6575    1.6196 H   0  0  0  0  0  0  0  0  0  0  0  0
    4.4176   -0.6026   -0.8017 H   0  0  0  0  0  0  0  0  0  0  0  0
    2.7853   -1.9810   -1.6452 H   0  0  0  0  0  0  0  0  0  0  0  0
    5.8722    0.7626    1.0141 H   0  0  0  0  0  0  0  0  0  0  0  0
    5.3752    2.4518    1.1766 H   0  0  0  0  0  0  0  0  0  0  0  0
    5.7080    1.7890   -0.4281 H   0  0  0  0  0  0  0  0  0  0  0  0
   -3.4017   -3.0615    0.1366 H   0  0  0  0  0  0  0  0  0  0  0  0
   -5.2326   -2.2473   -1.3848 H   0  0  0  0  0  0  0  0  0  0  0  0
   -4.9700    1.5795    0.5480 H   0  0  0  0  0  0  0  0  0  0  0  0
   -6.0406    0.0850   -1.1195 H   0  0  0  0  0  0  0  0  0  0  0  0
  1  2  1  0
  1  3  1  0
  1  4  2  0
  5  3  1  0
  5  6  1  0
  5  7  2  0
  6  8  2  0
  9  6  1  0
  8 10  1  0
 11  9  2  0
  9 12  1  0
 10 13  2  0
 13 11  1  0
 13 14  1  0
  2 15  2  0
 16  2  1  0
 15 17  1  0
 18 16  2  0
 16 19  1  0
 17 20  2  0
 20 18  1  0
  3 21  1  0
  8 22  1  0
 10 23  1  0
 11 24  1  0
 12 25  1  0
 14 26  1  0
 14 27  1  0
 14 28  1  0
 15 29  1  0
 17 30  1  0
 18 31  1  0
 20 32  1  0
M  END
$$$$

     RDKit          3D

 35 36  0  0  0  0  0  0  0  0999 V2000
    0.9764    0.0492    1.0641 C   0  0  0  0  0  0  0  0  0  0  0  0
    2.3821   -0.3529    0.7948 C   0  0  0  0  0  0  0  0  0  0  0  0
    0.3133    0.5142   -0.0384 N   0  0  0  0  0  0  0  0  0  0  0  0
    0.5056    0.0065    2.1950 O   0  0  0  0  0  0  0  0  0  0  0  0
   -0.7126   -0.2823   -0.4567 C   0  0  0  0  0  0  0  0  0  0  0  0
   -2.0463    0.3042   -0.1882 C   0  0  0  0  0  0  0  0  0  0  0  0
   -0.5527   -1.3487   -1.0394 O   0  0  0  0  0  0  0  0  0  0  0  0
   -2.7362   -0.1920    0.8574 C   0  0  0  0  0  0  0  0  0  0  0  0
   -2.7315    1.1095   -1.1869 C   0  0  0  0  0  0  0  0  0  0  0  0
   -4.1893   -0.1391    0.8506 C   0  0  0  0  0  0  0  0  0  0  0  0
   -4.0742    1.2150   -1.1602 C   0  0  0  0  0  0  0  0  0  0  0  0
   -1.9331    1.7498   -2.1046 O   0  0  0  0  0  0  0  0  0  0  0  0
   -4.8436    0.5350   -0.1176 C   0  0  0  0  0  0  0  0  0  0  0  0
   -6.3362    0.6358   -0.1828 C   0  0  0  0  0  0  0  0  0  0  0  0
    2.6074   -1.5360    0.1927 C   0  0  0  0  0  0  0  0  0  0  0  0
    3.4615    0.6144    0.9187 C   0  0  0  0  0  0  0  0  0  0  0  0
    3.8311   -1.7291   -0.5684 C   0  0  0  0  0  0  0  0  0  0  0  0
    4.6227    0.4041    0.2726 C   0  0  0  0  0  0  0  0  0  0  0  0
    4.8080   -0.7990   -0.5369 C   0  0  0  0  0  0  0  0  0  0  0  0
    6.0980   -0.9355   -1.2850 C   0  0  0  0  0  0  0  0  0  0  0  0
    0.9239    0.7066   -0.8211 H   0  0  0  0  0  0  0  0  0  0  0  0
   -2.2365   -0.5951    1.7335 H   0  0  0  0  0  0  0  0  0  0  0  0
   -4.7146   -0.6511    1.6508 H   0  0  0  0  0  0  0  0  0  0  0  0
   -4.6155    1.8121   -1.8853 H   0  0  0  0  0  0  0  0  0  0  0  0
   -2.5123    2.2300   -2.7207 H   0  0  0  0  0  0  0  0  0  0  0  0
   -6.8166    0.0957    0.6401 H   0  0  0  0  0  0  0  0  0  0  0  0
   -6.6543    1.6821   -0.1236 H   0  0  0  0  0  0  0  0  0  0  0  0
   -6.7096    0.2116   -1.1209 H   0  0  0  0  0  0  0  0  0  0  0  0
    1.8970   -2.3560    0.2491 H   0  0  0  0  0  0  0  0  0  0  0  0
    3.3095    1.4847    1.5489 H   0  0  0  0  0  0  0  0  0  0  0  0
    3.9261   -2.6435   -1.1460 H   0  0  0  0  0  0  0  0  0  0  0  0
    5.4439    1.1089    0.3600 H   0  0  0  0  0  0  0  0  0  0  0  0
    6.2218   -0.1084   -1.9921 H   0  0  0  0  0  0  0  0  0  0  0  0
    6.9469   -0.9313   -0.5930 H   0  0  0  0  0  0  0  0  0  0  0  0
    6.1398   -1.8693   -1.8560 H   0  0  0  0  0  0  0  0  0  0  0  0
  1  2  1  0
  1  3  1  0
  1  4  2  0
  5  3  1  0
  5  6  1  0
  5  7  2  0
  6  8  2  0
  9  6  1  0
  8 10  1  0
 11  9  2  0
  9 12  1  0
 10 13  2  0
 13 11  1  0
 13 14  1  0
  2 15  2  0
 16  2  1  0
 15 17  1  0
 18 16  2  0
 17 19  2  0
 19 18  1  0
 19 20  1  0
  3 21  1  0
  8 22  1  0
 10 23  1  0
 11 24  1  0
 12 25  1  0
 14 26  1  0
 14 27  1  0
 14 28  1  0
 15 29  1  0
 16 30  1  0
 17 31  1  0
 18 32  1  0
 20 33  1  0
 20 34  1  0
 20 35  1  0
M  END
$$$$

     RDKit          3D

 32 33  0  0  0  0  0  0  0  0999 V2000
   -1.5211   -2.4014    0.5220 C   0  0  0  0  0  0  0  0  0  0  0  0
   -2.3250   -1.1677    0.7114 C   0  0  0  0  0  0  0  0  0  0  0  0
   -0.8660   -2.4590   -0.6791 N   0  0  0  0  0  0  0  0  0  0  0  0
   -1.5401   -3.3164    1.3360 O   0  0  0  0  0  0  0  0  0  0  0  0
    0.4845   -2.2356   -0.6755 C   0  0  0  0  0  0  0  0  0  0  0  0
    0.8812   -0.8101   -0.5363 C   0  0  0  0  0  0  0  0  0  0  0  0
    1.2946   -3.1272   -0.9062 O   0  0  0  0  0  0  0  0  0  0  0  0
    0.8793   -0.0676   -1.6618 C   0  0  0  0  0  0  0  0  0  0  0  0
    1.6479   -0.3578    0.6151 C   0  0  0  0  0  0  0  0  0  0  0  0
    1.8385    1.0149   -1.8140 C   0  0  0  0  0  0  0  0  0  0  0  0
    2.4911    0.6855    0.4989 C   0  0  0  0  0  0  0  0  0  0  0  0
    1.4279   -1.0323    1.7900 O   0  0  0  0  0  0  0  0  0  0  0  0
    2.6224    1.3830   -0.7799 C   0  0  0  0  0  0  0  0  0  0  0  0
    3.6313    2.4864   -0.8647 C   0  0  0  0  0  0  0  0  0  0  0  0
   -1.8494   -0.2617    1.5890 C   0  0  0  0  0  0  0  0  0  0  0  0
   -3.3939   -0.7839   -0.2017 C   0  0  0  0  0  0  0  0  0  0  0  0
   -2.0978    1.1515    1.3574 C   0  0  0  0  0  0  0  0  0  0  0  0
   -3.7036    0.5190   -0.3472 C   0  0  0  0  0  0  0  0  0  0  0  0
   -4.2757   -1.9948   -1.0533 Cl  0  0  0  0  0  0  0  0  0  0  0  0
   -2.9890    1.5271    0.4222 C   0  0  0  0  0  0  0  0  0  0  0  0
   -1.0028   -3.3890   -1.0562 H   0  0  0  0  0  0  0  0  0  0  0  0
    0.1773   -0.2481   -2.4692 H   0  0  0  0  0  0  0  0  0  0  0  0
    1.8962    1.5064   -2.7803 H   0  0  0  0  0  0  0  0  0  0  0  0
    3.0689    1.0488    1.3413 H   0  0  0  0  0  0  0  0  0  0  0  0
    2.0863   -0.7365    2.4412 H   0  0  0  0  0  0  0  0  0  0  0  0
    3.4023    3.2743   -0.1391 H   0  0  0  0  0  0  0  0  0  0  0  0
    3.6490    2.9456   -1.8589 H   0  0  0  0  0  0  0  0  0  0  0  0
    4.6367    2.1046   -0.6573 H   0  0  0  0  0  0  0  0  0  0  0  0
   -1.2922   -0.5594    2.4722 H   0  0  0  0  0  0  0  0  0  0  0  0
   -1.5588    1.8780    1.9564 H   0  0  0  0  0  0  0  0  0  0  0  0
   -4.4967    0.8499   -1.0096 H   0  0  0  0  0  0  0  0  0  0  0  0
   -3.2035    2.5737    0.2318 H   0  0  0  0  0  0  0  0  0  0  0  0
  1  2  1  0
  1  3  1  0
  1  4  2  0
  5  3  1  0
  5  6  1  0
  5  7  2  0
  6  8  2  0
  9  6  1  0
  8 10  1  0
 11  9  2  0
  9 12  1  0
 10 13  2  0
 13 11  1  0
 13 14  1  0
  2 15  2  0
 16  2  1  0
 15 17  1  0
 18 16  2  0
 16 19  1  0
 17 20  2  0
 20 18  1  0
  3 21  1  0
  8 22  1  0
 10 23  1  0
 11 24  1  0
 12 25  1  0
 14 26  1  0
 14 27  1  0
 14 28  1  0
 15 29  1  0
 17 30  1  0
 18 31  1  0
 20 32  1  0
M  END
$$$$

     RDKit          3D

 32 33  0  0  0  0  0  0  0  0999 V2000
    1.6543   -1.0143    0.6671 C   0  0  0  0  0  0  0  0  0  0  0  0
    1.8996   -0.7832   -0.7787 C   0  0  0  0  0  0  0  0  0  0  0  0
    0.7030   -1.9789    0.8763 N   0  0  0  0  0  0  0  0  0  0  0  0
    2.2770   -0.4267    1.5405 O   0  0  0  0  0  0  0  0  0  0  0  0
   -0.2130   -1.7730    1.8699 C   0  0  0  0  0  0  0  0  0  0  0  0
   -1.1995   -0.6901    1.6408 C   0  0  0  0  0  0  0  0  0  0  0  0
   -0.3247   -2.5349    2.8256 O   0  0  0  0  0  0  0  0  0  0  0  0
   -0.8596    0.5703    1.9730 C   0  0  0  0  0  0  0  0  0  0  0  0
   -2.3924   -0.9158    0.8388 C   0  0  0  0  0  0  0  0  0  0  0  0
   -1.4010    1.6756    1.1962 C   0  0  0  0  0  0  0  0  0  0  0  0
   -2.9562    0.1131    0.1828 C   0  0  0  0  0  0  0  0  0  0  0  0
   -2.9474   -2.1745    0.8193 O   0  0  0  0  0  0  0  0  0  0  0  0
   -2.4060    1.4619    0.3203 C   0  0  0  0  0  0  0  0  0  0  0  0
   -3.0211    2.5442   -0.5113 C   0  0  0  0  0  0  0  0  0  0  0  0
    1.3221    0.3067   -1.3246 C   0  0  0  0  0  0  0  0  0  0  0  0
    3.0402   -1.3985   -1.4472 C   0  0  0  0  0  0  0  0  0  0  0  0
    2.0289    1.0489   -2.3580 C   0  0  0  0  0  0  0  0  0  0  0  0
    3.6481   -0.7566   -2.4631 C   0  0  0  0  0  0  0  0  0  0  0  0
    3.5590   -2.9709   -0.9671 Cl  0  0  0  0  0  0  0  0  0  0  0  0
    3.1480    0.5364   -2.9015 C   0  0  0  0  0  0  0  0  0  0  0  0
    4.0012    1.3710   -4.1403 Cl  0  0  0  0  0  0  0  0  0  0  0  0
    1.1600   -2.8625    1.0691 H   0  0  0  0  0  0  0  0  0  0  0  0
   -0.1683    0.7885    2.7821 H   0  0  0  0  0  0  0  0  0  0  0  0
   -0.9729    2.6615    1.3527 H   0  0  0  0  0  0  0  0  0  0  0  0
   -3.8561   -0.0341   -0.4057 H   0  0  0  0  0  0  0  0  0  0  0  0
   -2.6063   -2.6757    1.5850 H   0  0  0  0  0  0  0  0  0  0  0  0
   -2.5476    3.5151   -0.3303 H   0  0  0  0  0  0  0  0  0  0  0  0
   -2.9130    2.3166   -1.5770 H   0  0  0  0  0  0  0  0  0  0  0  0
   -4.0874    2.6467   -0.2843 H   0  0  0  0  0  0  0  0  0  0  0  0
    0.3173    0.6209   -1.0639 H   0  0  0  0  0  0  0  0  0  0  0  0
    1.6216    2.0039   -2.6743 H   0  0  0  0  0  0  0  0  0  0  0  0
    4.4924   -1.1915   -2.9879 H   0  0  0  0  0  0  0  0  0  0  0  0
  1  2  1  0
  1  3  1  0
  1  4  2  0
  5  3  1  0
  5  6  1  0
  5  7  2  0
  6  8  2  0
  9  6  1  0
  8 10  1  0
 11  9  2  0
  9 12  1  0
 10 13  2  0
 13 11  1  0
 13 14  1  0
  2 15  2  0
 16  2  1  0
 15 17  1  0
 18 16  2  0
 16 19  1  0
 17 20  2  0
 20 18  1  0
 20 21  1  0
  3 22  1  0
  8 23  1  0
 10 24  1  0
 11 25  1  0
 12 26  1  0
 14 27  1  0
 14 28  1  0
 14 29  1  0
 15 30  1  0
 17 31  1  0
 18 32  1  0
M  END
$$$$

     RDKit          3D

 32 33  0  0  0  0  0  0  0  0999 V2000
   -1.1736   -0.7527   -2.4786 C   0  0  0  0  0  0  0  0  0  0  0  0
   -2.1272    0.0506   -1.6728 C   0  0  0  0  0  0  0  0  0  0  0  0
    0.0519   -0.9407   -1.9046 N   0  0  0  0  0  0  0  0  0  0  0  0
   -1.4405   -1.1366   -3.6109 O   0  0  0  0  0  0  0  0  0  0  0  0
    0.1102   -1.7909   -0.8340 C   0  0  0  0  0  0  0  0  0  0  0  0
    0.8745   -1.2521    0.3165 C   0  0  0  0  0  0  0  0  0  0  0  0
   -0.3093   -2.9422   -0.8161 O   0  0  0  0  0  0  0  0  0  0  0  0
    0.4040   -0.1704    0.9668 C   0  0  0  0  0  0  0  0  0  0  0  0
    2.2656   -1.6374    0.5077 C   0  0  0  0  0  0  0  0  0  0  0  0
    1.3467    0.8400    1.4228 C   0  0  0  0  0  0  0  0  0  0  0  0
    3.1332   -0.7556    1.0335 C   0  0  0  0  0  0  0  0  0  0  0  0
    2.6429   -2.9196    0.1806 O   0  0  0  0  0  0  0  0  0  0  0  0
    2.6686    0.5671    1.4541 C   0  0  0  0  0  0  0  0  0  0  0  0
    3.7027    1.5414    1.9262 C   0  0  0  0  0  0  0  0  0  0  0  0
   -3.0648   -0.6025   -0.9586 C   0  0  0  0  0  0  0  0  0  0  0  0
   -1.9723    1.4917   -1.5333 C   0  0  0  0  0  0  0  0  0  0  0  0
   -3.7624    0.0941    0.1126 C   0  0  0  0  0  0  0  0  0  0  0  0
   -2.6611    2.1456   -0.5789 C   0  0  0  0  0  0  0  0  0  0  0  0
   -3.5671    1.4135    0.2925 C   0  0  0  0  0  0  0  0  0  0  0  0
   -4.3762    2.2735    1.5433 Cl  0  0  0  0  0  0  0  0  0  0  0  0
    0.6780   -1.2704   -2.6289 H   0  0  0  0  0  0  0  0  0  0  0  0
   -0.6382   -0.0759    1.2513 H   0  0  0  0  0  0  0  0  0  0  0  0
    0.9490    1.7955    1.7506 H   0  0  0  0  0  0  0  0  0  0  0  0
    4.1705   -1.0297    1.1950 H   0  0  0  0  0  0  0  0  0  0  0  0
    1.8383   -3.4553    0.0326 H   0  0  0  0  0  0  0  0  0  0  0  0
    4.4267    1.7486    1.1311 H   0  0  0  0  0  0  0  0  0  0  0  0
    4.2418    1.1424    2.7921 H   0  0  0  0  0  0  0  0  0  0  0  0
    3.2551    2.4956    2.2243 H   0  0  0  0  0  0  0  0  0  0  0  0
   -3.3539   -1.6245   -1.1878 H   0  0  0  0  0  0  0  0  0  0  0  0
   -1.3047    2.0142   -2.2106 H   0  0  0  0  0  0  0  0  0  0  0  0
   -4.4408   -0.4771    0.7378 H   0  0  0  0  0  0  0  0  0  0  0  0
   -2.5676    3.2196   -0.4563 H   0  0  0  0  0  0  0  0  0  0  0  0
  1  2  1  0
  1  3  1  0
  1  4  2  0
  5  3  1  0
  5  6  1  0
  5  7  2  0
  6  8  2  0
  9  6  1  0
  8 10  1  0
 11  9  2  0
  9 12  1  0
 10 13  2  0
 13 11  1  0
 13 14  1  0
  2 15  2  0
 16  2  1  0
 15 17  1  0
 18 16  2  0
 17 19  2  0
 19 18  1  0
 19 20  1  0
  3 21  1  0
  8 22  1  0
 10 23  1  0
 11 24  1  0
 12 25  1  0
 14 26  1  0
 14 27  1  0
 14 28  1  0
 15 29  1  0
 16 30  1  0
 17 31  1  0
 18 32  1  0
M  END
$$$$

     RDKit          3D

 33 34  0  0  0  0  0  0  0  0999 V2000
   -0.6134    1.2732   -0.8166 C   0  0  0  0  0  0  0  0  0  0  0  0
   -1.9080    0.7680   -0.2861 C   0  0  0  0  0  0  0  0  0  0  0  0
   -0.1744    0.6200   -1.9404 N   0  0  0  0  0  0  0  0  0  0  0  0
   -0.0261    2.2187   -0.3044 O   0  0  0  0  0  0  0  0  0  0  0  0
    0.2394   -0.6708   -1.7896 C   0  0  0  0  0  0  0  0  0  0  0  0
    1.5022   -0.8837   -1.0386 C   0  0  0  0  0  0  0  0  0  0  0  0
   -0.4013   -1.6310   -2.2113 O   0  0  0  0  0  0  0  0  0  0  0  0
    2.5972   -0.1630   -1.3497 C   0  0  0  0  0  0  0  0  0  0  0  0
    1.4770   -1.6293    0.2142 C   0  0  0  0  0  0  0  0  0  0  0  0
    3.5253    0.2051   -0.2911 C   0  0  0  0  0  0  0  0  0  0  0  0
    2.3909   -1.3693    1.1641 C   0  0  0  0  0  0  0  0  0  0  0  0
    0.5255   -2.6122    0.3771 O   0  0  0  0  0  0  0  0  0  0  0  0
    3.4296   -0.3680    0.9271 C   0  0  0  0  0  0  0  0  0  0  0  0
    4.3460   -0.0441    2.0654 C   0  0  0  0  0  0  0  0  0  0  0  0
   -1.9278    0.3445    0.9931 C   0  0  0  0  0  0  0  0  0  0  0  0
   -3.1547    0.9678   -1.0096 C   0  0  0  0  0  0  0  0  0  0  0  0
   -3.1918    0.2814    1.7115 C   0  0  0  0  0  0  0  0  0  0  0  0
   -4.3339    0.8656   -0.3592 C   0  0  0  0  0  0  0  0  0  0  0  0
   -3.0276    1.2242   -2.3591 O   0  0  0  0  0  0  0  0  0  0  0  0
   -3.1478   -0.1685    3.5193 Br  0  0  0  0  0  0  0  0  0  0  0  0
   -4.3441    0.5345    1.0608 C   0  0  0  0  0  0  0  0  0  0  0  0
   -5.9801    1.1017   -1.2066 Br  0  0  0  0  0  0  0  0  0  0  0  0
   -0.8812    0.6713   -2.6666 H   0  0  0  0  0  0  0  0  0  0  0  0
    2.7983    0.1800   -2.3587 H   0  0  0  0  0  0  0  0  0  0  0  0
    4.2836    0.9485   -0.5166 H   0  0  0  0  0  0  0  0  0  0  0  0
    2.3890   -1.9205    2.0983 H   0  0  0  0  0  0  0  0  0  0  0  0
    0.0932   -2.7710   -0.4868 H   0  0  0  0  0  0  0  0  0  0  0  0
    4.8850   -0.9395    2.3935 H   0  0  0  0  0  0  0  0  0  0  0  0
    5.0920    0.7075    1.7856 H   0  0  0  0  0  0  0  0  0  0  0  0
    3.7795    0.3515    2.9154 H   0  0  0  0  0  0  0  0  0  0  0  0
   -1.0127    0.0767    1.5144 H   0  0  0  0  0  0  0  0  0  0  0  0
   -3.9316    1.3422   -2.7128 H   0  0  0  0  0  0  0  0  0  0  0  0
   -5.2976    0.4885    1.5775 H   0  0  0  0  0  0  0  0  0  0  0  0
  1  2  1  0
  1  3  1  0
  1  4  2  0
  5  3  1  0
  5  6  1  0
  5  7  2  0
  6  8  2  0
  9  6  1  0
  8 10  1  0
 11  9  2  0
  9 12  1  0
 10 13  2  0
 13 11  1  0
 13 14  1  0
  2 15  2  0
 16  2  1  0
 15 17  1  0
 18 16  2  0
 16 19  1  0
 17 20  1  0
 17 21  2  0
 21 18  1  0
 18 22  1  0
  3 23  1  0
  8 24  1  0
 10 25  1  0
 11 26  1  0
 12 27  1  0
 14 28  1  0
 14 29  1  0
 14 30  1  0
 15 31  1  0
 19 32  1  0
 21 33  1  0
M  END
$$$$

     RDKit          3D

 32 33  0  0  0  0  0  0  0  0999 V2000
    1.4581    0.7818    2.3462 C   0  0  0  0  0  0  0  0  0  0  0  0
    2.3007    0.9234    1.1323 C   0  0  0  0  0  0  0  0  0  0  0  0
    0.1819    0.3510    2.1167 N   0  0  0  0  0  0  0  0  0  0  0  0
    1.8544    1.1155    3.4563 O   0  0  0  0  0  0  0  0  0  0  0  0
    0.0264   -0.9594    1.7548 C   0  0  0  0  0  0  0  0  0  0  0  0
   -0.8703   -1.1563    0.5906 C   0  0  0  0  0  0  0  0  0  0  0  0
    0.4658   -1.9242    2.3698 O   0  0  0  0  0  0  0  0  0  0  0  0
   -0.5004   -0.6736   -0.6113 C   0  0  0  0  0  0  0  0  0  0  0  0
   -2.2632   -1.5239    0.8020 C   0  0  0  0  0  0  0  0  0  0  0  0
   -1.5125   -0.0779   -1.4706 C   0  0  0  0  0  0  0  0  0  0  0  0
   -3.2048   -1.0767   -0.0467 C   0  0  0  0  0  0  0  0  0  0  0  0
   -2.5697   -2.3616    1.8498 O   0  0  0  0  0  0  0  0  0  0  0  0
   -2.8226   -0.2641   -1.2024 C   0  0  0  0  0  0  0  0  0  0  0  0
   -3.9264    0.2967   -2.0442 C   0  0  0  0  0  0  0  0  0  0  0  0
    3.1665   -0.0659    0.8397 C   0  0  0  0  0  0  0  0  0  0  0  0
    2.0957    2.0153    0.1927 C   0  0  0  0  0  0  0  0  0  0  0  0
    3.7079   -0.1670   -0.5075 C   0  0  0  0  0  0  0  0  0  0  0  0
    2.6466    1.9504   -1.0340 C   0  0  0  0  0  0  0  0  0  0  0  0
    3.4599    0.8003   -1.4124 C   0  0  0  0  0  0  0  0  0  0  0  0
    4.1258    0.7343   -3.1510 Br  0  0  0  0  0  0  0  0  0  0  0  0
   -0.3543    0.5327    2.9561 H   0  0  0  0  0  0  0  0  0  0  0  0
    0.5024   -0.8052   -1.0024 H   0  0  0  0  0  0  0  0  0  0  0  0
   -1.1770    0.4929   -2.3310 H   0  0  0  0  0  0  0  0  0  0  0  0
   -4.2458   -1.3513    0.0880 H   0  0  0  0  0  0  0  0  0  0  0  0
   -1.7399   -2.7422    2.2002 H   0  0  0  0  0  0  0  0  0  0  0  0
   -3.5385    0.8817   -2.8851 H   0  0  0  0  0  0  0  0  0  0  0  0
   -4.5442   -0.5082   -2.4563 H   0  0  0  0  0  0  0  0  0  0  0  0
   -4.5667    0.9561   -1.4486 H   0  0  0  0  0  0  0  0  0  0  0  0
    3.5118   -0.7690    1.5927 H   0  0  0  0  0  0  0  0  0  0  0  0
    1.5041    2.8696    0.5048 H   0  0  0  0  0  0  0  0  0  0  0  0
    4.3189   -1.0323   -0.7444 H   0  0  0  0  0  0  0  0  0  0  0  0
    2.5093    2.7572   -1.7468 H   0  0  0  0  0  0  0  0  0  0  0  0
  1  2  1  0
  1  3  1  0
  1  4  2  0
  5  3  1  0
  5  6  1  0
  5  7  2  0
  6  8  2  0
  9  6  1  0
  8 10  1  0
 11  9  2  0
  9 12  1  0
 10 13  2  0
 13 11  1  0
 13 14  1  0
  2 15  2  0
 16  2  1  0
 15 17  1  0
 18 16  2  0
 17 19  2  0
 19 18  1  0
 19 20  1  0
  3 21  1  0
  8 22  1  0
 10 23  1  0
 11 24  1  0
 12 25  1  0
 14 26  1  0
 14 27  1  0
 14 28  1  0
 15 29  1  0
 16 30  1  0
 17 31  1  0
 18 32  1  0
M  END
$$$$

     RDKit          3D

 33 34  0  0  0  0  0  0  0  0999 V2000
    1.5083   -1.8089    1.6241 C   0  0  0  0  0  0  0  0  0  0  0  0
    2.1141   -0.7545    0.7758 C   0  0  0  0  0  0  0  0  0  0  0  0
    0.2960   -2.2573    1.1754 N   0  0  0  0  0  0  0  0  0  0  0  0
    2.0736   -2.2570    2.6159 O   0  0  0  0  0  0  0  0  0  0  0  0
   -0.8136   -1.6313    1.6709 C   0  0  0  0  0  0  0  0  0  0  0  0
   -1.3906   -0.6227    0.7478 C   0  0  0  0  0  0  0  0  0  0  0  0
   -1.3210   -1.8887    2.7576 O   0  0  0  0  0  0  0  0  0  0  0  0
   -1.3520    0.6647    1.1412 C   0  0  0  0  0  0  0  0  0  0  0  0
   -2.0651   -0.9847   -0.4883 C   0  0  0  0  0  0  0  0  0  0  0  0
   -1.9238    1.6977    0.2967 C   0  0  0  0  0  0  0  0  0  0  0  0
   -2.6074   -0.0276   -1.2629 C   0  0  0  0  0  0  0  0  0  0  0  0
   -2.0968   -2.3233   -0.7991 O   0  0  0  0  0  0  0  0  0  0  0  0
   -2.5343    1.3773   -0.8623 C   0  0  0  0  0  0  0  0  0  0  0  0
   -3.1605    2.3869   -1.7754 C   0  0  0  0  0  0  0  0  0  0  0  0
    2.2726    0.4707    1.3195 C   0  0  0  0  0  0  0  0  0  0  0  0
    2.6200   -1.0269   -0.5641 C   0  0  0  0  0  0  0  0  0  0  0  0
    2.8040    1.5567    0.5117 C   0  0  0  0  0  0  0  0  0  0  0  0
    3.1316   -0.0250   -1.3024 C   0  0  0  0  0  0  0  0  0  0  0  0
    2.5329   -2.3236   -1.0052 O   0  0  0  0  0  0  0  0  0  0  0  0
    3.2141    1.3193   -0.7485 C   0  0  0  0  0  0  0  0  0  0  0  0
    0.2255   -3.2425    1.3864 H   0  0  0  0  0  0  0  0  0  0  0  0
   -1.0234    0.9505    2.1321 H   0  0  0  0  0  0  0  0  0  0  0  0
   -1.8628    2.7251    0.6440 H   0  0  0  0  0  0  0  0  0  0  0  0
   -3.1138   -0.2645   -2.1926 H   0  0  0  0  0  0  0  0  0  0  0  0
   -2.5933   -2.4320   -1.6278 H   0  0  0  0  0  0  0  0  0  0  0  0
   -2.6771    2.3663   -2.7569 H   0  0  0  0  0  0  0  0  0  0  0  0
   -4.2267    2.1857   -1.9087 H   0  0  0  0  0  0  0  0  0  0  0  0
   -3.0630    3.4028   -1.3803 H   0  0  0  0  0  0  0  0  0  0  0  0
    2.0702    0.6627    2.3715 H   0  0  0  0  0  0  0  0  0  0  0  0
    2.8740    2.5457    0.9529 H   0  0  0  0  0  0  0  0  0  0  0  0
    3.5208   -0.1787   -2.3003 H   0  0  0  0  0  0  0  0  0  0  0  0
    2.9404   -2.3756   -1.8868 H   0  0  0  0  0  0  0  0  0  0  0  0
    3.6268    2.1125   -1.3667 H   0  0  0  0  0  0  0  0  0  0  0  0
  1  2  1  0
  1  3  1  0
  1  4  2  0
  5  3  1  0
  5  6  1  0
  5  7  2  0
  6  8  2  0
  9  6  1  0
  8 10  1  0
 11  9  2  0
  9 12  1  0
 10 13  2  0
 13 11  1  0
 13 14  1  0
  2 15  2  0
 16  2  1  0
 15 17  1  0
 18 16  2  0
 16 19  1  0
 17 20  2  0
 20 18  1  0
  3 21  1  0
  8 22  1  0
 10 23  1  0
 11 24  1  0
 12 25  1  0
 14 26  1  0
 14 27  1  0
 14 28  1  0
 15 29  1  0
 17 30  1  0
 18 31  1  0
 19 32  1  0
 20 33  1  0
M  END
$$$$

     RDKit          3D

 36 37  0  0  0  0  0  0  0  0999 V2000
    1.0300   -1.8514    0.6044 C   0  0  0  0  0  0  0  0  0  0  0  0
    1.8055   -0.5874    0.5462 C   0  0  0  0  0  0  0  0  0  0  0  0
    0.4081   -2.1803   -0.5672 N   0  0  0  0  0  0  0  0  0  0  0  0
    1.0681   -2.5481    1.6134 O   0  0  0  0  0  0  0  0  0  0  0  0
   -0.8947   -2.5867   -0.4841 C   0  0  0  0  0  0  0  0  0  0  0  0
   -1.8664   -1.5115   -0.1706 C   0  0  0  0  0  0  0  0  0  0  0  0
   -1.2389   -3.7441   -0.6967 O   0  0  0  0  0  0  0  0  0  0  0  0
   -2.3273   -1.4397    1.0942 C   0  0  0  0  0  0  0  0  0  0  0  0
   -2.3138   -0.5474   -1.1637 C   0  0  0  0  0  0  0  0  0  0  0  0
   -3.1595   -0.3181    1.4965 C   0  0  0  0  0  0  0  0  0  0  0  0
   -3.1228    0.4662   -0.7999 C   0  0  0  0  0  0  0  0  0  0  0  0
   -1.8620   -0.7357   -2.4465 O   0  0  0  0  0  0  0  0  0  0  0  0
   -3.5550    0.6004    0.5911 C   0  0  0  0  0  0  0  0  0  0  0  0
   -4.4325    1.7656    0.9319 C   0  0  0  0  0  0  0  0  0  0  0  0
    1.2064    0.5524    0.1495 C   0  0  0  0  0  0  0  0  0  0  0  0
    3.2595   -0.6207    0.6429 C   0  0  0  0  0  0  0  0  0  0  0  0
    1.9772    1.5258   -0.6098 C   0  0  0  0  0  0  0  0  0  0  0  0
    3.9884    0.3373    0.0447 C   0  0  0  0  0  0  0  0  0  0  0  0
    3.8487   -1.6169    1.3898 O   0  0  0  0  0  0  0  0  0  0  0  0
    3.3224    1.4272   -0.6684 C   0  0  0  0  0  0  0  0  0  0  0  0
    4.1904    2.3932   -1.4134 C   0  0  0  0  0  0  0  0  0  0  0  0
    0.9237   -2.9069   -1.0462 H   0  0  0  0  0  0  0  0  0  0  0  0
   -2.1381   -2.2272    1.8185 H   0  0  0  0  0  0  0  0  0  0  0  0
   -3.4614   -0.2647    2.5382 H   0  0  0  0  0  0  0  0  0  0  0  0
   -3.4731    1.2017   -1.5155 H   0  0  0  0  0  0  0  0  0  0  0  0
   -2.2958   -0.0841   -3.0228 H   0  0  0  0  0  0  0  0  0  0  0  0
   -4.6981    1.7777    1.9947 H   0  0  0  0  0  0  0  0  0  0  0  0
   -5.3649    1.7235    0.3579 H   0  0  0  0  0  0  0  0  0  0  0  0
   -3.9277    2.7113    0.7040 H   0  0  0  0  0  0  0  0  0  0  0  0
    0.1919    0.8052    0.4388 H   0  0  0  0  0  0  0  0  0  0  0  0
    1.4374    2.3278   -1.1025 H   0  0  0  0  0  0  0  0  0  0  0  0
    5.0707    0.3350    0.1202 H   0  0  0  0  0  0  0  0  0  0  0  0
    3.1475   -2.1150    1.8574 H   0  0  0  0  0  0  0  0  0  0  0  0
    4.7708    1.8741   -2.1834 H   0  0  0  0  0  0  0  0  0  0  0  0
    4.8862    2.8915   -0.7301 H   0  0  0  0  0  0  0  0  0  0  0  0
    3.5994    3.1702   -1.9101 H   0  0  0  0  0  0  0  0  0  0  0  0
  1  2  1  0
  1  3  1  0
  1  4  2  0
  5  3  1  0
  5  6  1  0
  5  7  2  0
  6  8  2  0
  9  6  1  0
  8 10  1  0
 11  9  2  0
  9 12  1  0
 10 13  2  0
 13 11  1  0
 13 14  1  0
  2 15  2  0
 16  2  1  0
 15 17  1  0
 18 16  2  0
 16 19  1  0
 17 20  2  0
 20 18  1  0
 20 21  1  0
  3 22  1  0
  8 23  1  0
 10 24  1  0
 11 25  1  0
 12 26  1  0
 14 27  1  0
 14 28  1  0
 14 29  1  0
 15 30  1  0
 17 31  1  0
 18 32  1  0
 19 33  1  0
 21 34  1  0
 21 35  1  0
 21 36  1  0
M  END
$$$$

     RDKit          3D

 32 33  0  0  0  0  0  0  0  0999 V2000
    2.0605   -1.4144   -1.0961 C   0  0  0  0  0  0  0  0  0  0  0  0
    2.4830   -0.4034   -0.0994 C   0  0  0  0  0  0  0  0  0  0  0  0
    1.0603   -2.2395   -0.6593 N   0  0  0  0  0  0  0  0  0  0  0  0
    2.6338   -1.5519   -2.1700 O   0  0  0  0  0  0  0  0  0  0  0  0
   -0.2130   -1.9491   -1.0700 C   0  0  0  0  0  0  0  0  0  0  0  0
   -0.8904   -0.8920   -0.2743 C   0  0  0  0  0  0  0  0  0  0  0  0
   -0.7888   -2.5971   -1.9373 O   0  0  0  0  0  0  0  0  0  0  0  0
   -1.4508   -1.2800    0.8896 C   0  0  0  0  0  0  0  0  0  0  0  0
   -1.3375    0.3424   -0.9024 C   0  0  0  0  0  0  0  0  0  0  0  0
   -2.6671   -0.6337    1.3569 C   0  0  0  0  0  0  0  0  0  0  0  0
   -2.4239    0.9851   -0.4331 C   0  0  0  0  0  0  0  0  0  0  0  0
   -0.5794    0.7954   -1.9533 O   0  0  0  0  0  0  0  0  0  0  0  0
   -3.1454    0.4575    0.7249 C   0  0  0  0  0  0  0  0  0  0  0  0
   -4.3891    1.1752    1.1508 C   0  0  0  0  0  0  0  0  0  0  0  0
    2.3741    0.9024   -0.4171 C   0  0  0  0  0  0  0  0  0  0  0  0
    3.1164   -0.7890    1.1464 C   0  0  0  0  0  0  0  0  0  0  0  0
    2.7420    1.9154    0.5609 C   0  0  0  0  0  0  0  0  0  0  0  0
    3.4979    0.1440    2.0349 C   0  0  0  0  0  0  0  0  0  0  0  0
    3.3099   -2.0977    1.4074 F   0  0  0  0  0  0  0  0  0  0  0  0
    3.2840    1.5512    1.7376 C   0  0  0  0  0  0  0  0  0  0  0  0
    1.2698   -3.1716   -0.9960 H   0  0  0  0  0  0  0  0  0  0  0  0
   -1.0300   -2.0767    1.4938 H   0  0  0  0  0  0  0  0  0  0  0  0
   -3.1658   -1.0597    2.2220 H   0  0  0  0  0  0  0  0  0  0  0  0
   -2.7768    1.9094   -0.8771 H   0  0  0  0  0  0  0  0  0  0  0  0
   -1.0431    1.5463   -2.3611 H   0  0  0  0  0  0  0  0  0  0  0  0
   -5.1390    1.1493    0.3527 H   0  0  0  0  0  0  0  0  0  0  0  0
   -4.1677    2.2211    1.3890 H   0  0  0  0  0  0  0  0  0  0  0  0
   -4.8354    0.7199    2.0419 H   0  0  0  0  0  0  0  0  0  0  0  0
    2.0818    1.2261   -1.4113 H   0  0  0  0  0  0  0  0  0  0  0  0
    2.5851    2.9594    0.3071 H   0  0  0  0  0  0  0  0  0  0  0  0
    3.9694   -0.1333    2.9698 H   0  0  0  0  0  0  0  0  0  0  0  0
    3.5753    2.2888    2.4782 H   0  0  0  0  0  0  0  0  0  0  0  0
  1  2  1  0
  1  3  1  0
  1  4  2  0
  5  3  1  0
  5  6  1  0
  5  7  2  0
  6  8  2  0
  9  6  1  0
  8 10  1  0
 11  9  2  0
  9 12  1  0
 10 13  2  0
 13 11  1  0
 13 14  1  0
  2 15  2  0
 16  2  1  0
 15 17  1  0
 18 16  2  0
 16 19  1  0
 17 20  2  0
 20 18  1  0
  3 21  1  0
  8 22  1  0
 10 23  1  0
 11 24  1  0
 12 25  1  0
 14 26  1  0
 14 27  1  0
 14 28  1  0
 15 29  1  0
 17 30  1  0
 18 31  1  0
 20 32  1  0
M  END
$$$$

     RDKit          3D

 32 33  0  0  0  0  0  0  0  0999 V2000
    1.4350   -0.3168    1.0159 C   0  0  0  0  0  0  0  0  0  0  0  0
    2.8898   -0.4369    0.7448 C   0  0  0  0  0  0  0  0  0  0  0  0
    0.6590   -0.9450    0.0886 N   0  0  0  0  0  0  0  0  0  0  0  0
    0.9975    0.2381    2.0163 O   0  0  0  0  0  0  0  0  0  0  0  0
   -0.0038   -0.1107   -0.7708 C   0  0  0  0  0  0  0  0  0  0  0  0
   -1.3770    0.2501   -0.3190 C   0  0  0  0  0  0  0  0  0  0  0  0
    0.4704    0.2981   -1.8256 O   0  0  0  0  0  0  0  0  0  0  0  0
   -1.7012    1.5576   -0.3059 C   0  0  0  0  0  0  0  0  0  0  0  0
   -2.4312   -0.7476   -0.2054 C   0  0  0  0  0  0  0  0  0  0  0  0
   -3.0850    1.9545   -0.5116 C   0  0  0  0  0  0  0  0  0  0  0  0
   -3.7220   -0.3788   -0.3135 C   0  0  0  0  0  0  0  0  0  0  0  0
   -2.0213   -2.0336    0.0627 O   0  0  0  0  0  0  0  0  0  0  0  0
   -4.0659    1.0283   -0.5222 C   0  0  0  0  0  0  0  0  0  0  0  0
   -5.5109    1.3646   -0.7257 C   0  0  0  0  0  0  0  0  0  0  0  0
    3.6093   -1.2816    1.5119 C   0  0  0  0  0  0  0  0  0  0  0  0
    3.5428    0.3554   -0.2907 C   0  0  0  0  0  0  0  0  0  0  0  0
    5.0292   -1.4620    1.2456 C   0  0  0  0  0  0  0  0  0  0  0  0
    4.8605    0.1998   -0.5177 C   0  0  0  0  0  0  0  0  0  0  0  0
    5.6187   -0.7453    0.2752 C   0  0  0  0  0  0  0  0  0  0  0  0
    6.9335   -0.8863    0.0180 F   0  0  0  0  0  0  0  0  0  0  0  0
    0.0163   -1.5955    0.5277 H   0  0  0  0  0  0  0  0  0  0  0  0
   -0.9531    2.3326   -0.1719 H   0  0  0  0  0  0  0  0  0  0  0  0
   -3.2903    3.0112   -0.6529 H   0  0  0  0  0  0  0  0  0  0  0  0
   -4.5330   -1.0923   -0.2191 H   0  0  0  0  0  0  0  0  0  0  0  0
   -2.8174   -2.5949    0.0966 H   0  0  0  0  0  0  0  0  0  0  0  0
   -6.1035    1.0595    0.1434 H   0  0  0  0  0  0  0  0  0  0  0  0
   -5.6618    2.4399   -0.8694 H   0  0  0  0  0  0  0  0  0  0  0  0
   -5.9035    0.8532   -1.6110 H   0  0  0  0  0  0  0  0  0  0  0  0
    3.1915   -1.7535    2.3959 H   0  0  0  0  0  0  0  0  0  0  0  0
    2.9482    1.0518   -0.8740 H   0  0  0  0  0  0  0  0  0  0  0  0
    5.5970   -2.1618    1.8468 H   0  0  0  0  0  0  0  0  0  0  0  0
    5.3821    0.7619   -1.2832 H   0  0  0  0  0  0  0  0  0  0  0  0
  1  2  1  0
  1  3  1  0
  1  4  2  0
  5  3  1  0
  5  6  1  0
  5  7  2  0
  6  8  2  0
  9  6  1  0
  8 10  1  0
 11  9  2  0
  9 12  1  0
 10 13  2  0
 13 11  1  0
 13 14  1  0
  2 15  2  0
 16  2  1  0
 15 17  1  0
 18 16  2  0
 17 19  2  0
 19 18  1  0
 19 20  1  0
  3 21  1  0
  8 22  1  0
 10 23  1  0
 11 24  1  0
 12 25  1  0
 14 26  1  0
 14 27  1  0
 14 28  1  0
 15 29  1  0
 16 30  1  0
 17 31  1  0
 18 32  1  0
M  END
$$$$

     RDKit          3D

 32 33  0  0  0  0  0  0  0  0999 V2000
    1.6729   -0.9975    0.2358 C   0  0  0  0  0  0  0  0  0  0  0  0
    3.0871   -0.6045    0.0007 C   0  0  0  0  0  0  0  0  0  0  0  0
    0.8517    0.0523    0.5433 N   0  0  0  0  0  0  0  0  0  0  0  0
    1.3185   -2.1702    0.1928 O   0  0  0  0  0  0  0  0  0  0  0  0
   -0.0756    0.3443   -0.4141 C   0  0  0  0  0  0  0  0  0  0  0  0
   -1.4528   -0.0329   -0.0193 C   0  0  0  0  0  0  0  0  0  0  0  0
    0.1902    0.9060   -1.4706 O   0  0  0  0  0  0  0  0  0  0  0  0
   -1.9614   -1.1562   -0.5624 C   0  0  0  0  0  0  0  0  0  0  0  0
   -2.3403    0.9206    0.6276 C   0  0  0  0  0  0  0  0  0  0  0  0
   -3.4002   -1.2882   -0.7263 C   0  0  0  0  0  0  0  0  0  0  0  0
   -3.6753    0.7677    0.5339 C   0  0  0  0  0  0  0  0  0  0  0  0
   -1.7350    1.9316    1.3355 O   0  0  0  0  0  0  0  0  0  0  0  0
   -4.2345   -0.3661   -0.2032 C   0  0  0  0  0  0  0  0  0  0  0  0
   -5.7247   -0.4423   -0.3283 C   0  0  0  0  0  0  0  0  0  0  0  0
    3.9378   -0.7021    1.0411 C   0  0  0  0  0  0  0  0  0  0  0  0
    3.4799    0.1243   -1.1969 C   0  0  0  0  0  0  0  0  0  0  0  0
    5.1379    0.1191    1.0628 C   0  0  0  0  0  0  0  0  0  0  0  0
    4.6218    0.8356   -1.1978 C   0  0  0  0  0  0  0  0  0  0  0  0
    5.4663    0.8553   -0.0145 C   0  0  0  0  0  0  0  0  0  0  0  0
    1.3531    0.8948    0.7904 H   0  0  0  0  0  0  0  0  0  0  0  0
   -1.3290   -1.9931   -0.8441 H   0  0  0  0  0  0  0  0  0  0  0  0
   -3.7667   -2.1518   -1.2726 H   0  0  0  0  0  0  0  0  0  0  0  0
   -4.3647    1.4561    1.0093 H   0  0  0  0  0  0  0  0  0  0  0  0
   -2.4339    2.5039    1.6957 H   0  0  0  0  0  0  0  0  0  0  0  0
   -6.1126    0.4409   -0.8470 H   0  0  0  0  0  0  0  0  0  0  0  0
   -6.0407   -1.3251   -0.8944 H   0  0  0  0  0  0  0  0  0  0  0  0
   -6.1918   -0.4975    0.6608 H   0  0  0  0  0  0  0  0  0  0  0  0
    3.8207   -1.4672    1.8029 H   0  0  0  0  0  0  0  0  0  0  0  0
    2.8342    0.0837   -2.0694 H   0  0  0  0  0  0  0  0  0  0  0  0
    5.7637    0.1009    1.9489 H   0  0  0  0  0  0  0  0  0  0  0  0
    4.9391    1.3934   -2.0728 H   0  0  0  0  0  0  0  0  0  0  0  0
    6.3643    1.4641   -0.0317 H   0  0  0  0  0  0  0  0  0  0  0  0
  1  2  1  0
  1  3  1  0
  1  4  2  0
  5  3  1  0
  5  6  1  0
  5  7  2  0
  6  8  2  0
  9  6  1  0
  8 10  1  0
 11  9  2  0
  9 12  1  0
 10 13  2  0
 13 11  1  0
 13 14  1  0
  2 15  2  0
 16  2  1  0
 15 17  1  0
 18 16  2  0
 17 19  2  0
 19 18  1  0
  3 20  1  0
  8 21  1  0
 10 22  1  0
 11 23  1  0
 12 24  1  0
 14 25  1  0
 14 26  1  0
 14 27  1  0
 15 28  1  0
 16 29  1  0
 17 30  1  0
 18 31  1  0
 19 32  1  0
M  END
$$$$

     RDKit          3D

 32 33  0  0  0  0  0  0  0  0999 V2000
   -0.9758   -0.9879   -0.7603 C   0  0  0  0  0  0  0  0  0  0  0  0
   -2.4309   -0.7914   -0.5399 C   0  0  0  0  0  0  0  0  0  0  0  0
   -0.2860   -1.4000    0.3500 N   0  0  0  0  0  0  0  0  0  0  0  0
   -0.4696   -0.8482   -1.8683 O   0  0  0  0  0  0  0  0  0  0  0  0
   -0.0582   -0.4612    1.3174 C   0  0  0  0  0  0  0  0  0  0  0  0
    1.2418    0.2417    1.2025 C   0  0  0  0  0  0  0  0  0  0  0  0
   -0.8217   -0.2852    2.2607 O   0  0  0  0  0  0  0  0  0  0  0  0
    2.2747   -0.2891    1.8862 C   0  0  0  0  0  0  0  0  0  0  0  0
    1.5032    1.2145    0.1544 C   0  0  0  0  0  0  0  0  0  0  0  0
    3.6224   -0.1655    1.3547 C   0  0  0  0  0  0  0  0  0  0  0  0
    2.7610    1.3974   -0.2913 C   0  0  0  0  0  0  0  0  0  0  0  0
    0.4153    1.9051   -0.3196 O   0  0  0  0  0  0  0  0  0  0  0  0
    3.8663    0.6433    0.3024 C   0  0  0  0  0  0  0  0  0  0  0  0
    5.2261    0.8268   -0.2964 C   0  0  0  0  0  0  0  0  0  0  0  0
   -2.9254    0.4633   -0.5690 C   0  0  0  0  0  0  0  0  0  0  0  0
   -3.3349   -1.9262   -0.5590 C   0  0  0  0  0  0  0  0  0  0  0  0
   -4.3570    0.6647   -0.7482 C   0  0  0  0  0  0  0  0  0  0  0  0
   -4.6588   -1.7449   -0.6906 C   0  0  0  0  0  0  0  0  0  0  0  0
   -2.8233   -3.1653   -0.4129 F   0  0  0  0  0  0  0  0  0  0  0  0
   -5.1767   -0.3980   -0.8063 C   0  0  0  0  0  0  0  0  0  0  0  0
   -6.5047   -0.2357   -0.9627 F   0  0  0  0  0  0  0  0  0  0  0  0
   -0.6904   -2.2312    0.7588 H   0  0  0  0  0  0  0  0  0  0  0  0
    2.1380   -0.7561    2.8565 H   0  0  0  0  0  0  0  0  0  0  0  0
    4.4111   -0.7350    1.8371 H   0  0  0  0  0  0  0  0  0  0  0  0
    2.9911    2.1117   -1.0735 H   0  0  0  0  0  0  0  0  0  0  0  0
    0.7082    2.4354   -1.0808 H   0  0  0  0  0  0  0  0  0  0  0  0
    5.5337    1.8760   -0.2397 H   0  0  0  0  0  0  0  0  0  0  0  0
    5.2278    0.5213   -1.3480 H   0  0  0  0  0  0  0  0  0  0  0  0
    5.9835    0.2309    0.2239 H   0  0  0  0  0  0  0  0  0  0  0  0
   -2.2956    1.3345   -0.4156 H   0  0  0  0  0  0  0  0  0  0  0  0
   -4.7427    1.6748   -0.8238 H   0  0  0  0  0  0  0  0  0  0  0  0
   -5.3523   -2.5755   -0.6991 H   0  0  0  0  0  0  0  0  0  0  0  0
  1  2  1  0
  1  3  1  0
  1  4  2  0
  5  3  1  0
  5  6  1  0
  5  7  2  0
  6  8  2  0
  9  6  1  0
  8 10  1  0
 11  9  2  0
  9 12  1  0
 10 13  2  0
 13 11  1  0
 13 14  1  0
  2 15  2  0
 16  2  1  0
 15 17  1  0
 18 16  2  0
 16 19  1  0
 17 20  2  0
 20 18  1  0
 20 21  1  0
  3 22  1  0
  8 23  1  0
 10 24  1  0
 11 25  1  0
 12 26  1  0
 14 27  1  0
 14 28  1  0
 14 29  1  0
 15 30  1  0
 17 31  1  0
 18 32  1  0
M  END
$$$$

     RDKit          3D

 41 43  0  0  0  0  0  0  0  0999 V2000
    2.7172    0.1362    0.2389 C   0  0  0  0  0  0  0  0  0  0  0  0
    3.9896   -0.5761    0.3652 C   0  0  0  0  0  0  0  0  0  0  0  0
    2.5127    0.9641   -0.8113 C   0  0  0  0  0  0  0  0  0  0  0  0
    1.5756   -0.1163    1.1252 C   0  0  0  0  0  0  0  0  0  0  0  0
    1.1599    1.2576   -1.2616 C   0  0  0  0  0  0  0  0  0  0  0  0
    0.3242    0.1660    0.7179 C   0  0  0  0  0  0  0  0  0  0  0  0
    0.1073    0.7356   -0.6032 C   0  0  0  0  0  0  0  0  0  0  0  0
   -1.0217    0.3255   -1.2717 N   0  0  0  0  0  0  0  0  0  0  0  0
   -1.9583    1.2419   -1.6891 C   0  0  0  0  0  0  0  0  0  0  0  0
   -3.2573    1.1686   -0.9749 C   0  0  0  0  0  0  0  0  0  0  0  0
   -1.8233    1.9808   -2.6611 O   0  0  0  0  0  0  0  0  0  0  0  0
   -3.3009    1.2984    0.3657 C   0  0  0  0  0  0  0  0  0  0  0  0
   -4.4462    0.6993   -1.6753 C   0  0  0  0  0  0  0  0  0  0  0  0
   -4.3060    0.5585    1.1142 C   0  0  0  0  0  0  0  0  0  0  0  0
   -5.4373    0.1100   -0.9844 C   0  0  0  0  0  0  0  0  0  0  0  0
   -4.5435    0.9239   -3.0311 O   0  0  0  0  0  0  0  0  0  0  0  0
   -5.3391   -0.0240    0.4687 C   0  0  0  0  0  0  0  0  0  0  0  0
   -6.4199   -0.7932    1.1618 C   0  0  0  0  0  0  0  0  0  0  0  0
    4.1561   -1.7286   -0.3254 C   0  0  0  0  0  0  0  0  0  0  0  0
    5.1156   -0.1077    1.1839 C   0  0  0  0  0  0  0  0  0  0  0  0
    5.4707   -2.3450   -0.4697 C   0  0  0  0  0  0  0  0  0  0  0  0
    6.3151   -0.7139    1.1183 C   0  0  0  0  0  0  0  0  0  0  0  0
    4.8558    0.9645    2.0053 O   0  0  0  0  0  0  0  0  0  0  0  0
    5.7185   -3.9717   -1.7142 I   0  0  0  0  0  0  0  0  0  0  0  0
    6.5066   -1.8510    0.2356 C   0  0  0  0  0  0  0  0  0  0  0  0
    3.3263    1.5382   -1.2456 H   0  0  0  0  0  0  0  0  0  0  0  0
    1.7760   -0.5137    2.1150 H   0  0  0  0  0  0  0  0  0  0  0  0
    1.0275    2.0368   -2.0044 H   0  0  0  0  0  0  0  0  0  0  0  0
   -0.5285    0.0011    1.3662 H   0  0  0  0  0  0  0  0  0  0  0  0
   -0.8419   -0.3855   -1.9723 H   0  0  0  0  0  0  0  0  0  0  0  0
   -2.6162    1.9436    0.9054 H   0  0  0  0  0  0  0  0  0  0  0  0
   -4.1990    0.5027    2.1920 H   0  0  0  0  0  0  0  0  0  0  0  0
   -6.3373   -0.2236   -1.4903 H   0  0  0  0  0  0  0  0  0  0  0  0
   -3.8045    1.5079   -3.3013 H   0  0  0  0  0  0  0  0  0  0  0  0
   -7.4021   -0.3601    0.9471 H   0  0  0  0  0  0  0  0  0  0  0  0
   -6.2881   -0.7921    2.2499 H   0  0  0  0  0  0  0  0  0  0  0  0
   -6.4208   -1.8368    0.8286 H   0  0  0  0  0  0  0  0  0  0  0  0
    3.3014   -2.2479   -0.7515 H   0  0  0  0  0  0  0  0  0  0  0  0
    7.1621   -0.3904    1.7114 H   0  0  0  0  0  0  0  0  0  0  0  0
    5.6712    1.1937    2.4799 H   0  0  0  0  0  0  0  0  0  0  0  0
    7.5028   -2.2776    0.1748 H   0  0  0  0  0  0  0  0  0  0  0  0
  1  2  1  0
  3  1  2  0
  1  4  1  0
  5  3  1  0
  4  6  2  0
  7  5  2  0
  6  7  1  0
  8  7  1  0
  9  8  1  0
  9 10  1  0
  9 11  2  0
 10 12  2  0
 13 10  1  0
 12 14  1  0
 15 13  2  0
 13 16  1  0
 14 17  2  0
 17 15  1  0
 17 18  1  0
  2 19  2  0
 20  2  1  0
 19 21  1  0
 22 20  2  0
 20 23  1  0
 21 24  1  0
 21 25  2  0
 25 22  1  0
  3 26  1  0
  4 27  1  0
  5 28  1  0
  6 29  1  0
  8 30  1  0
 12 31  1  0
 14 32  1  0
 15 33  1  0
 16 34  1  0
 18 35  1  0
 18 36  1  0
 18 37  1  0
 19 38  1  0
 22 39  1  0
 23 40  1  0
 25 41  1  0
M  END
$$$$

     RDKit          3D

 40 42  0  0  0  0  0  0  0  0999 V2000
   -2.6096   -0.4204    0.4246 C   0  0  0  0  0  0  0  0  0  0  0  0
   -3.8892   -1.0313    0.7947 C   0  0  0  0  0  0  0  0  0  0  0  0
   -1.4771   -0.8114    1.0526 C   0  0  0  0  0  0  0  0  0  0  0  0
   -2.4802    0.5344   -0.6826 C   0  0  0  0  0  0  0  0  0  0  0  0
   -0.1735   -0.3779    0.5754 C   0  0  0  0  0  0  0  0  0  0  0  0
   -1.2708    0.8637   -1.1731 C   0  0  0  0  0  0  0  0  0  0  0  0
   -0.0722    0.2787   -0.5948 C   0  0  0  0  0  0  0  0  0  0  0  0
    1.0094    0.0568   -1.4118 N   0  0  0  0  0  0  0  0  0  0  0  0
    1.7993    1.0950   -1.8421 C   0  0  0  0  0  0  0  0  0  0  0  0
    3.0099    1.3398   -1.0211 C   0  0  0  0  0  0  0  0  0  0  0  0
    1.6180    1.6986   -2.8951 O   0  0  0  0  0  0  0  0  0  0  0  0
    2.8662    1.8326    0.2253 C   0  0  0  0  0  0  0  0  0  0  0  0
    4.2890    0.7598   -1.4059 C   0  0  0  0  0  0  0  0  0  0  0  0
    3.7531    1.3549    1.2751 C   0  0  0  0  0  0  0  0  0  0  0  0
    5.1741    0.4150   -0.4541 C   0  0  0  0  0  0  0  0  0  0  0  0
    4.5776    0.6332   -2.7452 O   0  0  0  0  0  0  0  0  0  0  0  0
    4.8675    0.6637    0.9564 C   0  0  0  0  0  0  0  0  0  0  0  0
    5.8353    0.1465    1.9757 C   0  0  0  0  0  0  0  0  0  0  0  0
   -4.3330   -2.0679    0.0438 C   0  0  0  0  0  0  0  0  0  0  0  0
   -4.8372   -0.4643    1.7754 C   0  0  0  0  0  0  0  0  0  0  0  0
   -5.7563   -2.2710   -0.1597 C   0  0  0  0  0  0  0  0  0  0  0  0
   -6.1525   -0.7454    1.6707 C   0  0  0  0  0  0  0  0  0  0  0  0
   -4.1895    0.6049    3.1651 Br  0  0  0  0  0  0  0  0  0  0  0  0
   -6.6366   -1.6291    0.6264 C   0  0  0  0  0  0  0  0  0  0  0  0
   -1.5034   -1.3825    1.9769 H   0  0  0  0  0  0  0  0  0  0  0  0
   -3.3864    0.9678   -1.0919 H   0  0  0  0  0  0  0  0  0  0  0  0
    0.6833   -0.5102    1.2276 H   0  0  0  0  0  0  0  0  0  0  0  0
   -1.1677    1.5750   -1.9879 H   0  0  0  0  0  0  0  0  0  0  0  0
    0.8358   -0.6230   -2.1430 H   0  0  0  0  0  0  0  0  0  0  0  0
    2.1373    2.6002    0.4573 H   0  0  0  0  0  0  0  0  0  0  0  0
    3.4934    1.5819    2.3053 H   0  0  0  0  0  0  0  0  0  0  0  0
    6.1373   -0.0097   -0.7196 H   0  0  0  0  0  0  0  0  0  0  0  0
    3.8969    1.1240   -3.2496 H   0  0  0  0  0  0  0  0  0  0  0  0
    5.5338    0.4283    2.9904 H   0  0  0  0  0  0  0  0  0  0  0  0
    5.8954   -0.9457    1.9300 H   0  0  0  0  0  0  0  0  0  0  0  0
    6.8360    0.5576    1.8014 H   0  0  0  0  0  0  0  0  0  0  0  0
   -3.6478   -2.7567   -0.4384 H   0  0  0  0  0  0  0  0  0  0  0  0
   -6.0795   -2.9525   -0.9395 H   0  0  0  0  0  0  0  0  0  0  0  0
   -6.8783   -0.3498    2.3706 H   0  0  0  0  0  0  0  0  0  0  0  0
   -7.7074   -1.7635    0.5112 H   0  0  0  0  0  0  0  0  0  0  0  0
  1  2  1  0
  3  1  2  0
  1  4  1  0
  5  3  1  0
  4  6  2  0
  7  5  2  0
  6  7  1  0
  8  7  1  0
  9  8  1  0
  9 10  1  0
  9 11  2  0
 10 12  2  0
 13 10  1  0
 12 14  1  0
 15 13  2  0
 13 16  1  0
 14 17  2  0
 17 15  1  0
 17 18  1  0
  2 19  2  0
 20  2  1  0
 19 21  1  0
 22 20  2  0
 20 23  1  0
 21 24  2  0
 24 22  1  0
  3 25  1  0
  4 26  1  0
  5 27  1  0
  6 28  1  0
  8 29  1  0
 12 30  1  0
 14 31  1  0
 15 32  1  0
 16 33  1  0
 18 34  1  0
 18 35  1  0
 18 36  1  0
 19 37  1  0
 21 38  1  0
 22 39  1  0
 24 40  1  0
M  END
$$$$

     RDKit          3D

 43 45  0  0  0  0  0  0  0  0999 V2000
   -2.2856   -0.2659    0.3842 C   0  0  0  0  0  0  0  0  0  0  0  0
   -3.7303   -0.2662    0.1575 C   0  0  0  0  0  0  0  0  0  0  0  0
   -1.8045   -0.5301    1.6211 C   0  0  0  0  0  0  0  0  0  0  0  0
   -1.3217    0.0785   -0.6687 C   0  0  0  0  0  0  0  0  0  0  0  0
   -0.3865   -0.3874    1.9142 C   0  0  0  0  0  0  0  0  0  0  0  0
   -0.0215    0.2684   -0.3804 C   0  0  0  0  0  0  0  0  0  0  0  0
    0.4431    0.1314    0.9895 C   0  0  0  0  0  0  0  0  0  0  0  0
    1.5613    0.8450    1.3445 N   0  0  0  0  0  0  0  0  0  0  0  0
    2.7258    0.1886    1.6762 C   0  0  0  0  0  0  0  0  0  0  0  0
    3.7458    0.2503    0.6018 C   0  0  0  0  0  0  0  0  0  0  0  0
    2.9158   -0.3773    2.7470 O   0  0  0  0  0  0  0  0  0  0  0  0
    3.9836   -0.8855   -0.0844 C   0  0  0  0  0  0  0  0  0  0  0  0
    4.6443    1.3864    0.4581 C   0  0  0  0  0  0  0  0  0  0  0  0
    5.2121   -1.0236   -0.8502 C   0  0  0  0  0  0  0  0  0  0  0  0
    5.7615    1.2714   -0.2860 C   0  0  0  0  0  0  0  0  0  0  0  0
    4.2757    2.5472    1.0965 O   0  0  0  0  0  0  0  0  0  0  0  0
    6.0745    0.0079   -0.9542 C   0  0  0  0  0  0  0  0  0  0  0  0
    7.3552   -0.0661   -1.7267 C   0  0  0  0  0  0  0  0  0  0  0  0
   -4.3477   -1.4109   -0.2143 C   0  0  0  0  0  0  0  0  0  0  0  0
   -4.5447    0.9482    0.2603 C   0  0  0  0  0  0  0  0  0  0  0  0
   -5.7442   -1.4139   -0.6170 C   0  0  0  0  0  0  0  0  0  0  0  0
   -5.8459    0.9408   -0.0816 C   0  0  0  0  0  0  0  0  0  0  0  0
   -6.4777   -0.2853   -0.5538 C   0  0  0  0  0  0  0  0  0  0  0  0
   -7.9232   -0.2182   -0.9372 C   0  0  0  0  0  0  0  0  0  0  0  0
   -2.4350   -0.9531    2.3986 H   0  0  0  0  0  0  0  0  0  0  0  0
   -1.6889    0.1754   -1.6848 H   0  0  0  0  0  0  0  0  0  0  0  0
   -0.0063   -0.8136    2.8378 H   0  0  0  0  0  0  0  0  0  0  0  0
    0.6957    0.5236   -1.1521 H   0  0  0  0  0  0  0  0  0  0  0  0
    1.3800    1.6204    1.9705 H   0  0  0  0  0  0  0  0  0  0  0  0
    3.3114   -1.7366   -0.0340 H   0  0  0  0  0  0  0  0  0  0  0  0
    5.4044   -1.9816   -1.3245 H   0  0  0  0  0  0  0  0  0  0  0  0
    6.4486    2.1006   -0.4152 H   0  0  0  0  0  0  0  0  0  0  0  0
    4.9703    3.2105    0.9422 H   0  0  0  0  0  0  0  0  0  0  0  0
    7.3563    0.6697   -2.5376 H   0  0  0  0  0  0  0  0  0  0  0  0
    7.5034   -1.0551   -2.1750 H   0  0  0  0  0  0  0  0  0  0  0  0
    8.2115    0.1332   -1.0743 H   0  0  0  0  0  0  0  0  0  0  0  0
   -3.8327   -2.3673   -0.1941 H   0  0  0  0  0  0  0  0  0  0  0  0
   -4.0650    1.8552    0.6181 H   0  0  0  0  0  0  0  0  0  0  0  0
   -6.1680   -2.3532   -0.9545 H   0  0  0  0  0  0  0  0  0  0  0  0
   -6.4432    1.8439   -0.0064 H   0  0  0  0  0  0  0  0  0  0  0  0
   -8.0723    0.4931   -1.7568 H   0  0  0  0  0  0  0  0  0  0  0  0
   -8.5340    0.0986   -0.0838 H   0  0  0  0  0  0  0  0  0  0  0  0
   -8.3012   -1.1921   -1.2702 H   0  0  0  0  0  0  0  0  0  0  0  0
  1  2  1  0
  3  1  2  0
  1  4  1  0
  5  3  1  0
  4  6  2  0
  7  5  2  0
  6  7  1  0
  8  7  1  0
  9  8  1  0
  9 10  1  0
  9 11  2  0
 10 12  2  0
 13 10  1  0
 12 14  1  0
 15 13  2  0
 13 16  1  0
 14 17  2  0
 17 15  1  0
 17 18  1  0
  2 19  2  0
 20  2  1  0
 19 21  1  0
 22 20  2  0
 21 23  2  0
 23 22  1  0
 23 24  1  0
  3 25  1  0
  4 26  1  0
  5 27  1  0
  6 28  1  0
  8 29  1  0
 12 30  1  0
 14 31  1  0
 15 32  1  0
 16 33  1  0
 18 34  1  0
 18 35  1  0
 18 36  1  0
 19 37  1  0
 20 38  1  0
 21 39  1  0
 22 40  1  0
 24 41  1  0
 24 42  1  0
 24 43  1  0
M  END
$$$$

     RDKit          3D

 40 42  0  0  0  0  0  0  0  0999 V2000
    2.8515   -0.0081    0.2866 C   0  0  0  0  0  0  0  0  0  0  0  0
    4.2716    0.3305    0.1582 C   0  0  0  0  0  0  0  0  0  0  0  0
    2.4938   -1.1833    0.8537 C   0  0  0  0  0  0  0  0  0  0  0  0
    1.7849    0.8490   -0.2447 C   0  0  0  0  0  0  0  0  0  0  0  0
    1.1111   -1.6335    0.8301 C   0  0  0  0  0  0  0  0  0  0  0  0
    0.5144    0.4112   -0.3041 C   0  0  0  0  0  0  0  0  0  0  0  0
    0.1835   -0.9237    0.1626 C   0  0  0  0  0  0  0  0  0  0  0  0
   -0.9113   -1.5263   -0.4070 N   0  0  0  0  0  0  0  0  0  0  0  0
   -2.0222   -1.8129    0.3550 C   0  0  0  0  0  0  0  0  0  0  0  0
   -3.1263   -0.8441    0.1544 C   0  0  0  0  0  0  0  0  0  0  0  0
   -2.1073   -2.7743    1.1104 O   0  0  0  0  0  0  0  0  0  0  0  0
   -3.3296    0.0712    1.1219 C   0  0  0  0  0  0  0  0  0  0  0  0
   -4.0351   -0.9228   -0.9793 C   0  0  0  0  0  0  0  0  0  0  0  0
   -4.4765    0.9619    1.0456 C   0  0  0  0  0  0  0  0  0  0  0  0
   -5.0912   -0.0913   -1.0519 C   0  0  0  0  0  0  0  0  0  0  0  0
   -3.7365   -1.8583   -1.9414 O   0  0  0  0  0  0  0  0  0  0  0  0
   -5.3315    0.8903    0.0053 C   0  0  0  0  0  0  0  0  0  0  0  0
   -6.5344    1.7718   -0.1305 C   0  0  0  0  0  0  0  0  0  0  0  0
    4.8554    1.0284    1.1617 C   0  0  0  0  0  0  0  0  0  0  0  0
    5.1234   -0.0696   -0.9763 C   0  0  0  0  0  0  0  0  0  0  0  0
    6.2970    1.1975    1.2225 C   0  0  0  0  0  0  0  0  0  0  0  0
    6.4535    0.1370   -0.9430 C   0  0  0  0  0  0  0  0  0  0  0  0
    4.4088   -0.7997   -2.3708 Cl  0  0  0  0  0  0  0  0  0  0  0  0
    7.0671    0.7677    0.2106 C   0  0  0  0  0  0  0  0  0  0  0  0
    3.2069   -1.7972    1.3939 H   0  0  0  0  0  0  0  0  0  0  0  0
    2.0497    1.8415   -0.5944 H   0  0  0  0  0  0  0  0  0  0  0  0
    0.8400   -2.5000    1.4259 H   0  0  0  0  0  0  0  0  0  0  0  0
   -0.2784    1.0358   -0.6987 H   0  0  0  0  0  0  0  0  0  0  0  0
   -0.6882   -2.2846   -1.0417 H   0  0  0  0  0  0  0  0  0  0  0  0
   -2.6938    0.1269    1.9989 H   0  0  0  0  0  0  0  0  0  0  0  0
   -4.6196    1.6699    1.8563 H   0  0  0  0  0  0  0  0  0  0  0  0
   -5.7821   -0.1204   -1.8859 H   0  0  0  0  0  0  0  0  0  0  0  0
   -4.4368   -1.8327   -2.6143 H   0  0  0  0  0  0  0  0  0  0  0  0
   -7.4503    1.1733   -0.1742 H   0  0  0  0  0  0  0  0  0  0  0  0
   -6.6297    2.4618    0.7148 H   0  0  0  0  0  0  0  0  0  0  0  0
   -6.4688    2.3722   -1.0437 H   0  0  0  0  0  0  0  0  0  0  0  0
    4.2692    1.4691    1.9632 H   0  0  0  0  0  0  0  0  0  0  0  0
    6.7254    1.6797    2.0950 H   0  0  0  0  0  0  0  0  0  0  0  0
    7.0967   -0.1485   -1.7677 H   0  0  0  0  0  0  0  0  0  0  0  0
    8.1455    0.8848    0.2283 H   0  0  0  0  0  0  0  0  0  0  0  0
  1  2  1  0
  3  1  2  0
  1  4  1  0
  5  3  1  0
  4  6  2  0
  7  5  2  0
  6  7  1  0
  8  7  1  0
  9  8  1  0
  9 10  1  0
  9 11  2  0
 10 12  2  0
 13 10  1  0
 12 14  1  0
 15 13  2  0
 13 16  1  0
 14 17  2  0
 17 15  1  0
 17 18  1  0
  2 19  2  0
 20  2  1  0
 19 21  1  0
 22 20  2  0
 20 23  1  0
 21 24  2  0
 24 22  1  0
  3 25  1  0
  4 26  1  0
  5 27  1  0
  6 28  1  0
  8 29  1  0
 12 30  1  0
 14 31  1  0
 15 32  1  0
 16 33  1  0
 18 34  1  0
 18 35  1  0
 18 36  1  0
 19 37  1  0
 21 38  1  0
 22 39  1  0
 24 40  1  0
M  END
$$$$

     RDKit          3D

 40 42  0  0  0  0  0  0  0  0999 V2000
   -2.5191   -1.6589   -0.4978 C   0  0  0  0  0  0  0  0  0  0  0  0
   -3.9593   -1.8717   -0.6600 C   0  0  0  0  0  0  0  0  0  0  0  0
   -1.6666   -2.0881   -1.4561 C   0  0  0  0  0  0  0  0  0  0  0  0
   -1.9491   -0.8958    0.6188 C   0  0  0  0  0  0  0  0  0  0  0  0
   -0.3305   -1.5197   -1.5609 C   0  0  0  0  0  0  0  0  0  0  0  0
   -0.7091   -0.3804    0.5311 C   0  0  0  0  0  0  0  0  0  0  0  0
    0.0727   -0.5869   -0.6759 C   0  0  0  0  0  0  0  0  0  0  0  0
    0.9193    0.4279   -1.0468 N   0  0  0  0  0  0  0  0  0  0  0  0
    2.2825    0.2300   -1.0491 C   0  0  0  0  0  0  0  0  0  0  0  0
    2.9731    1.0422   -0.0214 C   0  0  0  0  0  0  0  0  0  0  0  0
    2.8762   -0.5055   -1.8281 O   0  0  0  0  0  0  0  0  0  0  0  0
    3.3770    0.4073    1.0967 C   0  0  0  0  0  0  0  0  0  0  0  0
    3.4476    2.3875   -0.3041 C   0  0  0  0  0  0  0  0  0  0  0  0
    4.4124    1.0011    1.9294 C   0  0  0  0  0  0  0  0  0  0  0  0
    4.3750    2.9563    0.4919 C   0  0  0  0  0  0  0  0  0  0  0  0
    2.8761    3.0261   -1.3806 O   0  0  0  0  0  0  0  0  0  0  0  0
    4.9011    2.2276    1.6458 C   0  0  0  0  0  0  0  0  0  0  0  0
    5.9619    2.9005    2.4628 C   0  0  0  0  0  0  0  0  0  0  0  0
   -4.6816   -0.9023   -1.2684 C   0  0  0  0  0  0  0  0  0  0  0  0
   -4.7044   -2.9995   -0.0644 C   0  0  0  0  0  0  0  0  0  0  0  0
   -6.1223   -0.8167   -1.0899 C   0  0  0  0  0  0  0  0  0  0  0  0
   -6.0483   -2.9609    0.0318 C   0  0  0  0  0  0  0  0  0  0  0  0
   -3.8486   -4.3850    0.5050 Cl  0  0  0  0  0  0  0  0  0  0  0  0
   -6.7781   -1.8112   -0.4653 C   0  0  0  0  0  0  0  0  0  0  0  0
   -8.4829   -1.7483   -0.2401 Cl  0  0  0  0  0  0  0  0  0  0  0  0
   -1.9012   -2.9368   -2.0920 H   0  0  0  0  0  0  0  0  0  0  0  0
   -2.5471   -0.7706    1.5170 H   0  0  0  0  0  0  0  0  0  0  0  0
    0.3715   -1.9761   -2.2516 H   0  0  0  0  0  0  0  0  0  0  0  0
   -0.2665    0.1723    1.3528 H   0  0  0  0  0  0  0  0  0  0  0  0
    0.6156    0.9476   -1.8624 H   0  0  0  0  0  0  0  0  0  0  0  0
    2.9534   -0.5441    1.4038 H   0  0  0  0  0  0  0  0  0  0  0  0
    4.7683    0.4261    2.7774 H   0  0  0  0  0  0  0  0  0  0  0  0
    4.7397    3.9611    0.3178 H   0  0  0  0  0  0  0  0  0  0  0  0
    3.3298    3.8756   -1.5070 H   0  0  0  0  0  0  0  0  0  0  0  0
    6.8478    3.0964    1.8529 H   0  0  0  0  0  0  0  0  0  0  0  0
    6.2739    2.2851    3.3099 H   0  0  0  0  0  0  0  0  0  0  0  0
    5.5929    3.8532    2.8631 H   0  0  0  0  0  0  0  0  0  0  0  0
   -4.2082   -0.1431   -1.8854 H   0  0  0  0  0  0  0  0  0  0  0  0
   -6.6360    0.0582   -1.4770 H   0  0  0  0  0  0  0  0  0  0  0  0
   -6.6091   -3.7805    0.4675 H   0  0  0  0  0  0  0  0  0  0  0  0
  1  2  1  0
  3  1  2  0
  1  4  1  0
  5  3  1  0
  4  6  2  0
  7  5  2  0
  6  7  1  0
  8  7  1  0
  9  8  1  0
  9 10  1  0
  9 11  2  0
 10 12  2  0
 13 10  1  0
 12 14  1  0
 15 13  2  0
 13 16  1  0
 14 17  2  0
 17 15  1  0
 17 18  1  0
  2 19  2  0
 20  2  1  0
 19 21  1  0
 22 20  2  0
 20 23  1  0
 21 24  2  0
 24 22  1  0
 24 25  1  0
  3 26  1  0
  4 27  1  0
  5 28  1  0
  6 29  1  0
  8 30  1  0
 12 31  1  0
 14 32  1  0
 15 33  1  0
 16 34  1  0
 18 35  1  0
 18 36  1  0
 18 37  1  0
 19 38  1  0
 21 39  1  0
 22 40  1  0
M  END
$$$$

     RDKit          3D

 40 42  0  0  0  0  0  0  0  0999 V2000
    2.8607    0.0963   -0.0507 C   0  0  0  0  0  0  0  0  0  0  0  0
    4.2117    0.5842    0.2214 C   0  0  0  0  0  0  0  0  0  0  0  0
    2.5756   -0.4483   -1.2558 C   0  0  0  0  0  0  0  0  0  0  0  0
    1.7709    0.1964    0.9268 C   0  0  0  0  0  0  0  0  0  0  0  0
    1.1982   -0.7062   -1.6474 C   0  0  0  0  0  0  0  0  0  0  0  0
    0.4963   -0.0351    0.5610 C   0  0  0  0  0  0  0  0  0  0  0  0
    0.1884   -0.3866   -0.8160 C   0  0  0  0  0  0  0  0  0  0  0  0
   -1.0384    0.0113   -1.2955 N   0  0  0  0  0  0  0  0  0  0  0  0
   -1.9253   -0.9172   -1.7889 C   0  0  0  0  0  0  0  0  0  0  0  0
   -3.1557   -1.0922   -0.9778 C   0  0  0  0  0  0  0  0  0  0  0  0
   -1.8126   -1.4753   -2.8772 O   0  0  0  0  0  0  0  0  0  0  0  0
   -3.0683   -1.4264    0.3238 C   0  0  0  0  0  0  0  0  0  0  0  0
   -4.4458   -0.6746   -1.5128 C   0  0  0  0  0  0  0  0  0  0  0  0
   -4.0806   -0.9331    1.2467 C   0  0  0  0  0  0  0  0  0  0  0  0
   -5.4317   -0.3179   -0.6713 C   0  0  0  0  0  0  0  0  0  0  0  0
   -4.6360   -0.7053   -2.8771 O   0  0  0  0  0  0  0  0  0  0  0  0
   -5.2225   -0.3884    0.7744 C   0  0  0  0  0  0  0  0  0  0  0  0
   -6.3164    0.1359    1.6514 C   0  0  0  0  0  0  0  0  0  0  0  0
    4.5394    1.8556   -0.1070 C   0  0  0  0  0  0  0  0  0  0  0  0
    5.2237   -0.2343    0.8972 C   0  0  0  0  0  0  0  0  0  0  0  0
    5.8154    2.4270    0.2951 C   0  0  0  0  0  0  0  0  0  0  0  0
    6.4158    0.2844    1.2436 C   0  0  0  0  0  0  0  0  0  0  0  0
    6.7171    1.6699    0.9425 C   0  0  0  0  0  0  0  0  0  0  0  0
    8.2413    2.3041    1.4274 Cl  0  0  0  0  0  0  0  0  0  0  0  0
    3.3582   -0.7562   -1.9443 H   0  0  0  0  0  0  0  0  0  0  0  0
    2.0237    0.4504    1.9528 H   0  0  0  0  0  0  0  0  0  0  0  0
    1.0214   -1.2492   -2.5719 H   0  0  0  0  0  0  0  0  0  0  0  0
   -0.3132    0.0249    1.2807 H   0  0  0  0  0  0  0  0  0  0  0  0
   -0.9941    0.8426   -1.8769 H   0  0  0  0  0  0  0  0  0  0  0  0
   -2.3060   -2.1021    0.6932 H   0  0  0  0  0  0  0  0  0  0  0  0
   -3.8890   -1.0297    2.3099 H   0  0  0  0  0  0  0  0  0  0  0  0
   -6.4025   -0.0204   -1.0528 H   0  0  0  0  0  0  0  0  0  0  0  0
   -3.8621   -1.1459   -3.2869 H   0  0  0  0  0  0  0  0  0  0  0  0
   -6.4965    1.1967    1.4464 H   0  0  0  0  0  0  0  0  0  0  0  0
   -7.2476   -0.4138    1.4773 H   0  0  0  0  0  0  0  0  0  0  0  0
   -6.0668    0.0421    2.7145 H   0  0  0  0  0  0  0  0  0  0  0  0
    3.8962    2.4622   -0.7384 H   0  0  0  0  0  0  0  0  0  0  0  0
    4.9822   -1.2702    1.1124 H   0  0  0  0  0  0  0  0  0  0  0  0
    6.0116    3.4632    0.0493 H   0  0  0  0  0  0  0  0  0  0  0  0
    7.1635   -0.3190    1.7481 H   0  0  0  0  0  0  0  0  0  0  0  0
  1  2  1  0
  3  1  2  0
  1  4  1  0
  5  3  1  0
  4  6  2  0
  7  5  2  0
  6  7  1  0
  8  7  1  0
  9  8  1  0
  9 10  1  0
  9 11  2  0
 10 12  2  0
 13 10  1  0
 12 14  1  0
 15 13  2  0
 13 16  1  0
 14 17  2  0
 17 15  1  0
 17 18  1  0
  2 19  2  0
 20  2  1  0
 19 21  1  0
 22 20  2  0
 21 23  2  0
 23 22  1  0
 23 24  1  0
  3 25  1  0
  4 26  1  0
  5 27  1  0
  6 28  1  0
  8 29  1  0
 12 30  1  0
 14 31  1  0
 15 32  1  0
 16 33  1  0
 18 34  1  0
 18 35  1  0
 18 36  1  0
 19 37  1  0
 20 38  1  0
 21 39  1  0
 22 40  1  0
M  END
$$$$

     RDKit          3D

 41 43  0  0  0  0  0  0  0  0999 V2000
    2.7605    0.3732    0.1351 C   0  0  0  0  0  0  0  0  0  0  0  0
    4.0435    0.3925    0.8440 C   0  0  0  0  0  0  0  0  0  0  0  0
    2.6325   -0.3765   -0.9839 C   0  0  0  0  0  0  0  0  0  0  0  0
    1.5406    0.9633    0.6973 C   0  0  0  0  0  0  0  0  0  0  0  0
    1.3248   -0.8510   -1.4120 C   0  0  0  0  0  0  0  0  0  0  0  0
    0.3275    0.5534    0.2824 C   0  0  0  0  0  0  0  0  0  0  0  0
    0.2178   -0.4685   -0.7463 C   0  0  0  0  0  0  0  0  0  0  0  0
   -0.9294   -1.2258   -0.7556 N   0  0  0  0  0  0  0  0  0  0  0  0
   -1.7603   -1.2063   -1.8523 C   0  0  0  0  0  0  0  0  0  0  0  0
   -3.0794   -0.5685   -1.6216 C   0  0  0  0  0  0  0  0  0  0  0  0
   -1.5191   -1.7772   -2.9124 O   0  0  0  0  0  0  0  0  0  0  0  0
   -3.1467    0.7120   -1.2096 C   0  0  0  0  0  0  0  0  0  0  0  0
   -4.2909   -1.3790   -1.6096 C   0  0  0  0  0  0  0  0  0  0  0  0
   -4.2567    1.1237   -0.3625 C   0  0  0  0  0  0  0  0  0  0  0  0
   -5.3648   -0.9633   -0.9163 C   0  0  0  0  0  0  0  0  0  0  0  0
   -4.3197   -2.5329   -2.3621 O   0  0  0  0  0  0  0  0  0  0  0  0
   -5.3299    0.3182   -0.2105 C   0  0  0  0  0  0  0  0  0  0  0  0
   -6.5163    0.6725    0.6315 C   0  0  0  0  0  0  0  0  0  0  0  0
    4.9042    1.4004    0.5653 C   0  0  0  0  0  0  0  0  0  0  0  0
    4.4425   -0.5929    1.8698 C   0  0  0  0  0  0  0  0  0  0  0  0
    6.1683    1.5358    1.2701 C   0  0  0  0  0  0  0  0  0  0  0  0
    5.6229   -0.4775    2.5150 C   0  0  0  0  0  0  0  0  0  0  0  0
    3.5651   -1.6289    2.1390 O   0  0  0  0  0  0  0  0  0  0  0  0
    7.2630    2.9815    0.8361 Br  0  0  0  0  0  0  0  0  0  0  0  0
    6.5116    0.6318    2.2031 C   0  0  0  0  0  0  0  0  0  0  0  0
    6.2037   -1.6795    3.8244 Br  0  0  0  0  0  0  0  0  0  0  0  0
    3.4712   -0.5489   -1.6537 H   0  0  0  0  0  0  0  0  0  0  0  0
    1.6432    1.7357    1.4541 H   0  0  0  0  0  0  0  0  0  0  0  0
    1.2589   -1.3596   -2.3707 H   0  0  0  0  0  0  0  0  0  0  0  0
   -0.5796    0.9856    0.6917 H   0  0  0  0  0  0  0  0  0  0  0  0
   -0.7978   -2.1682   -0.4005 H   0  0  0  0  0  0  0  0  0  0  0  0
   -2.4263    1.4580   -1.5266 H   0  0  0  0  0  0  0  0  0  0  0  0
   -4.1944    2.0923    0.1224 H   0  0  0  0  0  0  0  0  0  0  0  0
   -6.2791   -1.5470   -0.9144 H   0  0  0  0  0  0  0  0  0  0  0  0
   -3.5272   -2.5476   -2.9370 H   0  0  0  0  0  0  0  0  0  0  0  0
   -6.6530   -0.0637    1.4312 H   0  0  0  0  0  0  0  0  0  0  0  0
   -6.4033    1.6563    1.1006 H   0  0  0  0  0  0  0  0  0  0  0  0
   -7.4270    0.6992    0.0234 H   0  0  0  0  0  0  0  0  0  0  0  0
    4.6720    2.1358   -0.2010 H   0  0  0  0  0  0  0  0  0  0  0  0
    2.7773   -1.5366    1.5786 H   0  0  0  0  0  0  0  0  0  0  0  0
    7.4495    0.7123    2.7437 H   0  0  0  0  0  0  0  0  0  0  0  0
  1  2  1  0
  3  1  2  0
  1  4  1  0
  5  3  1  0
  4  6  2  0
  7  5  2  0
  6  7  1  0
  8  7  1  0
  9  8  1  0
  9 10  1  0
  9 11  2  0
 10 12  2  0
 13 10  1  0
 12 14  1  0
 15 13  2  0
 13 16  1  0
 14 17  2  0
 17 15  1  0
 17 18  1  0
  2 19  2  0
 20  2  1  0
 19 21  1  0
 22 20  2  0
 20 23  1  0
 21 24  1  0
 21 25  2  0
 25 22  1  0
 22 26  1  0
  3 27  1  0
  4 28  1  0
  5 29  1  0
  6 30  1  0
  8 31  1  0
 12 32  1  0
 14 33  1  0
 15 34  1  0
 16 35  1  0
 18 36  1  0
 18 37  1  0
 18 38  1  0
 19 39  1  0
 23 40  1  0
 25 41  1  0
M  END
$$$$

     RDKit          3D

 40 42  0  0  0  0  0  0  0  0999 V2000
    2.8893    0.0102    0.0344 C   0  0  0  0  0  0  0  0  0  0  0  0
    4.2717   -0.2587    0.4266 C   0  0  0  0  0  0  0  0  0  0  0  0
    2.6431    0.8022   -1.0339 C   0  0  0  0  0  0  0  0  0  0  0  0
    1.7422   -0.6105    0.7058 C   0  0  0  0  0  0  0  0  0  0  0  0
    1.3044    0.9039   -1.5953 C   0  0  0  0  0  0  0  0  0  0  0  0
    0.5070   -0.5271    0.1792 C   0  0  0  0  0  0  0  0  0  0  0  0
    0.2967    0.1839   -1.0691 C   0  0  0  0  0  0  0  0  0  0  0  0
   -0.8067   -0.1647   -1.8080 N   0  0  0  0  0  0  0  0  0  0  0  0
   -1.8284    0.7393   -2.0018 C   0  0  0  0  0  0  0  0  0  0  0  0
   -3.0102    0.4618   -1.1505 C   0  0  0  0  0  0  0  0  0  0  0  0
   -1.7851    1.6636   -2.8057 O   0  0  0  0  0  0  0  0  0  0  0  0
   -3.2170    1.2784   -0.0981 C   0  0  0  0  0  0  0  0  0  0  0  0
   -4.0357   -0.4930   -1.5430 C   0  0  0  0  0  0  0  0  0  0  0  0
   -4.5031    1.2731    0.5809 C   0  0  0  0  0  0  0  0  0  0  0  0
   -5.2184   -0.5126   -0.8986 C   0  0  0  0  0  0  0  0  0  0  0  0
   -3.7138   -1.3551   -2.5650 O   0  0  0  0  0  0  0  0  0  0  0  0
   -5.4742    0.4179    0.2006 C   0  0  0  0  0  0  0  0  0  0  0  0
   -6.8216    0.3636    0.8522 C   0  0  0  0  0  0  0  0  0  0  0  0
    4.8603    0.5149    1.3662 C   0  0  0  0  0  0  0  0  0  0  0  0
    5.0499   -1.3672   -0.1353 C   0  0  0  0  0  0  0  0  0  0  0  0
    6.2075    0.2316    1.8359 C   0  0  0  0  0  0  0  0  0  0  0  0
    6.3014   -1.6222    0.2873 C   0  0  0  0  0  0  0  0  0  0  0  0
    6.9065   -0.7957    1.3191 C   0  0  0  0  0  0  0  0  0  0  0  0
    8.6357   -1.2097    1.8782 Br  0  0  0  0  0  0  0  0  0  0  0  0
    3.4053    1.4609   -1.4420 H   0  0  0  0  0  0  0  0  0  0  0  0
    1.9180   -1.1326    1.6407 H   0  0  0  0  0  0  0  0  0  0  0  0
    1.1178    1.6756   -2.3362 H   0  0  0  0  0  0  0  0  0  0  0  0
   -0.3470   -0.9772    0.6743 H   0  0  0  0  0  0  0  0  0  0  0  0
   -0.5980   -0.6774   -2.6576 H   0  0  0  0  0  0  0  0  0  0  0  0
   -2.4667    1.9922    0.2267 H   0  0  0  0  0  0  0  0  0  0  0  0
   -4.6484    1.9831    1.3893 H   0  0  0  0  0  0  0  0  0  0  0  0
   -6.0009   -1.2153   -1.1632 H   0  0  0  0  0  0  0  0  0  0  0  0
   -4.4884   -1.9142   -2.7419 H   0  0  0  0  0  0  0  0  0  0  0  0
   -6.9984   -0.6253    1.2885 H   0  0  0  0  0  0  0  0  0  0  0  0
   -7.6114    0.5670    0.1211 H   0  0  0  0  0  0  0  0  0  0  0  0
   -6.9146    1.1023    1.6557 H   0  0  0  0  0  0  0  0  0  0  0  0
    4.3555    1.3787    1.7900 H   0  0  0  0  0  0  0  0  0  0  0  0
    4.5856   -1.9763   -0.9055 H   0  0  0  0  0  0  0  0  0  0  0  0
    6.6198    0.8738    2.6076 H   0  0  0  0  0  0  0  0  0  0  0  0
    6.8707   -2.4437   -0.1354 H   0  0  0  0  0  0  0  0  0  0  0  0
  1  2  1  0
  3  1  2  0
  1  4  1  0
  5  3  1  0
  4  6  2  0
  7  5  2  0
  6  7  1  0
  8  7  1  0
  9  8  1  0
  9 10  1  0
  9 11  2  0
 10 12  2  0
 13 10  1  0
 12 14  1  0
 15 13  2  0
 13 16  1  0
 14 17  2  0
 17 15  1  0
 17 18  1  0
  2 19  2  0
 20  2  1  0
 19 21  1  0
 22 20  2  0
 21 23  2  0
 23 22  1  0
 23 24  1  0
  3 25  1  0
  4 26  1  0
  5 27  1  0
  6 28  1  0
  8 29  1  0
 12 30  1  0
 14 31  1  0
 15 32  1  0
 16 33  1  0
 18 34  1  0
 18 35  1  0
 18 36  1  0
 19 37  1  0
 20 38  1  0
 21 39  1  0
 22 40  1  0
M  END
$$$$

     RDKit          3D

 41 43  0  0  0  0  0  0  0  0999 V2000
   -2.9525   -0.4402    0.3218 C   0  0  0  0  0  0  0  0  0  0  0  0
   -4.3298    0.0532    0.2542 C   0  0  0  0  0  0  0  0  0  0  0  0
   -2.4258   -0.7793    1.5203 C   0  0  0  0  0  0  0  0  0  0  0  0
   -2.0535   -0.4641   -0.8408 C   0  0  0  0  0  0  0  0  0  0  0  0
   -0.9810   -0.7908    1.7077 C   0  0  0  0  0  0  0  0  0  0  0  0
   -0.7182   -0.4816   -0.6711 C   0  0  0  0  0  0  0  0  0  0  0  0
   -0.1682   -0.4871    0.6745 C   0  0  0  0  0  0  0  0  0  0  0  0
    1.0073    0.1948    0.8694 N   0  0  0  0  0  0  0  0  0  0  0  0
    2.1681   -0.4743    1.1969 C   0  0  0  0  0  0  0  0  0  0  0  0
    3.2704   -0.1551    0.2548 C   0  0  0  0  0  0  0  0  0  0  0  0
    2.3142   -1.2048    2.1714 O   0  0  0  0  0  0  0  0  0  0  0  0
    3.6551   -1.1261   -0.5999 C   0  0  0  0  0  0  0  0  0  0  0  0
    4.1075    1.0209    0.4424 C   0  0  0  0  0  0  0  0  0  0  0  0
    4.9916   -1.0916   -1.1763 C   0  0  0  0  0  0  0  0  0  0  0  0
    5.3251    1.0762   -0.1312 C   0  0  0  0  0  0  0  0  0  0  0  0
    3.5695    2.0436    1.1903 O   0  0  0  0  0  0  0  0  0  0  0  0
    5.8061   -0.0402   -0.9485 C   0  0  0  0  0  0  0  0  0  0  0  0
    7.1992    0.0579   -1.4928 C   0  0  0  0  0  0  0  0  0  0  0  0
   -4.5447    1.3905    0.3200 C   0  0  0  0  0  0  0  0  0  0  0  0
   -5.5019   -0.8014    0.0255 C   0  0  0  0  0  0  0  0  0  0  0  0
   -5.7832    1.9657   -0.1766 C   0  0  0  0  0  0  0  0  0  0  0  0
   -6.6866   -0.2705   -0.3333 C   0  0  0  0  0  0  0  0  0  0  0  0
   -5.3099   -2.1496    0.2219 O   0  0  0  0  0  0  0  0  0  0  0  0
   -6.8159    1.1659   -0.4895 C   0  0  0  0  0  0  0  0  0  0  0  0
   -3.0414   -1.2301    2.2935 H   0  0  0  0  0  0  0  0  0  0  0  0
   -2.4966   -0.4801   -1.8306 H   0  0  0  0  0  0  0  0  0  0  0  0
   -0.5894   -1.2647    2.6035 H   0  0  0  0  0  0  0  0  0  0  0  0
   -0.0372   -0.5160   -1.5185 H   0  0  0  0  0  0  0  0  0  0  0  0
    0.9146    1.0638    1.3844 H   0  0  0  0  0  0  0  0  0  0  0  0
    3.0142   -1.9698   -0.8357 H   0  0  0  0  0  0  0  0  0  0  0  0
    5.3055   -1.9393   -1.7773 H   0  0  0  0  0  0  0  0  0  0  0  0
    5.9690    1.9439   -0.0260 H   0  0  0  0  0  0  0  0  0  0  0  0
    4.2485    2.7333    1.2911 H   0  0  0  0  0  0  0  0  0  0  0  0
    7.4731   -0.8247   -2.0774 H   0  0  0  0  0  0  0  0  0  0  0  0
    7.2935    0.9305   -2.1456 H   0  0  0  0  0  0  0  0  0  0  0  0
    7.9240    0.1506   -0.6779 H   0  0  0  0  0  0  0  0  0  0  0  0
   -3.8131    2.0608    0.7594 H   0  0  0  0  0  0  0  0  0  0  0  0
   -5.8506    3.0454   -0.2742 H   0  0  0  0  0  0  0  0  0  0  0  0
   -7.5712   -0.8768   -0.4891 H   0  0  0  0  0  0  0  0  0  0  0  0
   -6.1314   -2.6089   -0.0238 H   0  0  0  0  0  0  0  0  0  0  0  0
   -7.7544    1.5705   -0.8535 H   0  0  0  0  0  0  0  0  0  0  0  0
  1  2  1  0
  3  1  2  0
  1  4  1  0
  5  3  1  0
  4  6  2  0
  7  5  2  0
  6  7  1  0
  8  7  1  0
  9  8  1  0
  9 10  1  0
  9 11  2  0
 10 12  2  0
 13 10  1  0
 12 14  1  0
 15 13  2  0
 13 16  1  0
 14 17  2  0
 17 15  1  0
 17 18  1  0
  2 19  2  0
 20  2  1  0
 19 21  1  0
 22 20  2  0
 20 23  1  0
 21 24  2  0
 24 22  1  0
  3 25  1  0
  4 26  1  0
  5 27  1  0
  6 28  1  0
  8 29  1  0
 12 30  1  0
 14 31  1  0
 15 32  1  0
 16 33  1  0
 18 34  1  0
 18 35  1  0
 18 36  1  0
 19 37  1  0
 21 38  1  0
 22 39  1  0
 23 40  1  0
 24 41  1  0
M  END
$$$$

     RDKit          3D

 44 46  0  0  0  0  0  0  0  0999 V2000
    1.9122   -0.5601    0.2016 C   0  0  0  0  0  0  0  0  0  0  0  0
    3.2834   -0.6763   -0.2952 C   0  0  0  0  0  0  0  0  0  0  0  0
    0.8794   -0.8749   -0.6107 C   0  0  0  0  0  0  0  0  0  0  0  0
    1.5919   -0.0645    1.5438 C   0  0  0  0  0  0  0  0  0  0  0  0
   -0.4741   -0.4571   -0.2792 C   0  0  0  0  0  0  0  0  0  0  0  0
    0.3183    0.1674    1.9109 C   0  0  0  0  0  0  0  0  0  0  0  0
   -0.7701   -0.0975    0.9816 C   0  0  0  0  0  0  0  0  0  0  0  0
   -2.0133   -0.3712    1.4989 N   0  0  0  0  0  0  0  0  0  0  0  0
   -2.7881    0.6206    2.0495 C   0  0  0  0  0  0  0  0  0  0  0  0
   -3.8492    1.1483    1.1552 C   0  0  0  0  0  0  0  0  0  0  0  0
   -2.7345    0.9620    3.2260 O   0  0  0  0  0  0  0  0  0  0  0  0
   -3.4969    1.8150    0.0400 C   0  0  0  0  0  0  0  0  0  0  0  0
   -5.2095    0.6379    1.2748 C   0  0  0  0  0  0  0  0  0  0  0  0
   -4.2829    1.6320   -1.1701 C   0  0  0  0  0  0  0  0  0  0  0  0
   -5.9843    0.5504    0.1788 C   0  0  0  0  0  0  0  0  0  0  0  0
   -5.6791    0.3018    2.5258 O   0  0  0  0  0  0  0  0  0  0  0  0
   -5.4804    1.0105   -1.1154 C   0  0  0  0  0  0  0  0  0  0  0  0
   -6.3498    0.7872   -2.3155 C   0  0  0  0  0  0  0  0  0  0  0  0
    3.8666    0.4082   -0.8552 C   0  0  0  0  0  0  0  0  0  0  0  0
    4.1371   -1.8537   -0.0775 C   0  0  0  0  0  0  0  0  0  0  0  0
    5.3125    0.5594   -0.8442 C   0  0  0  0  0  0  0  0  0  0  0  0
    5.4779   -1.7572   -0.1653 C   0  0  0  0  0  0  0  0  0  0  0  0
    3.4797   -3.0309    0.1977 O   0  0  0  0  0  0  0  0  0  0  0  0
    6.1015   -0.4815   -0.5106 C   0  0  0  0  0  0  0  0  0  0  0  0
    7.5967   -0.4075   -0.4870 C   0  0  0  0  0  0  0  0  0  0  0  0
    1.0090   -1.5366   -1.4598 H   0  0  0  0  0  0  0  0  0  0  0  0
    2.4159    0.1211    2.2266 H   0  0  0  0  0  0  0  0  0  0  0  0
   -1.2398   -0.5465   -1.0433 H   0  0  0  0  0  0  0  0  0  0  0  0
    0.0868    0.5558    2.8991 H   0  0  0  0  0  0  0  0  0  0  0  0
   -2.0585   -1.2390    2.0200 H   0  0  0  0  0  0  0  0  0  0  0  0
   -2.6498    2.4901    0.0170 H   0  0  0  0  0  0  0  0  0  0  0  0
   -3.8756    2.0128   -2.1006 H   0  0  0  0  0  0  0  0  0  0  0  0
   -7.0023    0.1800    0.2492 H   0  0  0  0  0  0  0  0  0  0  0  0
   -5.0256    0.6034    3.1866 H   0  0  0  0  0  0  0  0  0  0  0  0
   -6.4620   -0.2846   -2.5111 H   0  0  0  0  0  0  0  0  0  0  0  0
   -7.3452    1.2135   -2.1613 H   0  0  0  0  0  0  0  0  0  0  0  0
   -5.9296    1.2500   -3.2163 H   0  0  0  0  0  0  0  0  0  0  0  0
    3.2778    1.1909   -1.3230 H   0  0  0  0  0  0  0  0  0  0  0  0
    5.7209    1.5268   -1.1195 H   0  0  0  0  0  0  0  0  0  0  0  0
    6.1221   -2.6149   -0.0117 H   0  0  0  0  0  0  0  0  0  0  0  0
    4.1448   -3.7255    0.3244 H   0  0  0  0  0  0  0  0  0  0  0  0
    8.0300   -1.1332   -1.1813 H   0  0  0  0  0  0  0  0  0  0  0  0
    7.9592    0.5839   -0.7783 H   0  0  0  0  0  0  0  0  0  0  0  0
    7.9771   -0.6162    0.5181 H   0  0  0  0  0  0  0  0  0  0  0  0
  1  2  1  0
  3  1  2  0
  1  4  1  0
  5  3  1  0
  4  6  2  0
  7  5  2  0
  6  7  1  0
  8  7  1  0
  9  8  1  0
  9 10  1  0
  9 11  2  0
 10 12  2  0
 13 10  1  0
 12 14  1  0
 15 13  2  0
 13 16  1  0
 14 17  2  0
 17 15  1  0
 17 18  1  0
  2 19  2  0
 20  2  1  0
 19 21  1  0
 22 20  2  0
 20 23  1  0
 21 24  2  0
 24 22  1  0
 24 25  1  0
  3 26  1  0
  4 27  1  0
  5 28  1  0
  6 29  1  0
  8 30  1  0
 12 31  1  0
 14 32  1  0
 15 33  1  0
 16 34  1  0
 18 35  1  0
 18 36  1  0
 18 37  1  0
 19 38  1  0
 21 39  1  0
 22 40  1  0
 23 41  1  0
 25 42  1  0
 25 43  1  0
 25 44  1  0
M  END
$$$$

     RDKit          3D

 40 42  0  0  0  0  0  0  0  0999 V2000
    2.9843   -0.3659    0.8462 C   0  0  0  0  0  0  0  0  0  0  0  0
    4.4051   -0.3855    0.5049 C   0  0  0  0  0  0  0  0  0  0  0  0
    2.3923   -1.4943    1.3068 C   0  0  0  0  0  0  0  0  0  0  0  0
    2.1273    0.8052    0.6183 C   0  0  0  0  0  0  0  0  0  0  0  0
    0.9445   -1.6439    1.2357 C   0  0  0  0  0  0  0  0  0  0  0  0
    0.7898    0.6686    0.5561 C   0  0  0  0  0  0  0  0  0  0  0  0
    0.1919   -0.6458    0.7298 C   0  0  0  0  0  0  0  0  0  0  0  0
   -0.9556   -0.9099    0.0223 N   0  0  0  0  0  0  0  0  0  0  0  0
   -2.1672   -1.0160    0.6728 C   0  0  0  0  0  0  0  0  0  0  0  0
   -3.1809   -0.0885    0.1146 C   0  0  0  0  0  0  0  0  0  0  0  0
   -2.4169   -1.8129    1.5685 O   0  0  0  0  0  0  0  0  0  0  0  0
   -3.5171    0.9872    0.8561 C   0  0  0  0  0  0  0  0  0  0  0  0
   -3.9639   -0.4369   -1.0616 C   0  0  0  0  0  0  0  0  0  0  0  0
   -4.7292    1.7288    0.5435 C   0  0  0  0  0  0  0  0  0  0  0  0
   -5.0723    0.2645   -1.3623 C   0  0  0  0  0  0  0  0  0  0  0  0
   -3.4924   -1.4807   -1.8230 O   0  0  0  0  0  0  0  0  0  0  0  0
   -5.4889    1.3839   -0.5173 C   0  0  0  0  0  0  0  0  0  0  0  0
   -6.7583    2.0913   -0.8844 C   0  0  0  0  0  0  0  0  0  0  0  0
    4.7788   -0.6456   -0.7694 C   0  0  0  0  0  0  0  0  0  0  0  0
    5.4636   -0.0806    1.4664 C   0  0  0  0  0  0  0  0  0  0  0  0
    6.1824   -0.6702   -1.1532 C   0  0  0  0  0  0  0  0  0  0  0  0
    6.7604   -0.0891    1.1184 C   0  0  0  0  0  0  0  0  0  0  0  0
    5.1150    0.2278    2.7306 F   0  0  0  0  0  0  0  0  0  0  0  0
    7.1365   -0.4049   -0.2434 C   0  0  0  0  0  0  0  0  0  0  0  0
    2.9291   -2.1776    1.9562 H   0  0  0  0  0  0  0  0  0  0  0  0
    2.6013    1.7740    0.5178 H   0  0  0  0  0  0  0  0  0  0  0  0
    0.4865   -2.4424    1.8118 H   0  0  0  0  0  0  0  0  0  0  0  0
    0.1407    1.5222    0.4041 H   0  0  0  0  0  0  0  0  0  0  0  0
   -0.8534   -1.6251   -0.6881 H   0  0  0  0  0  0  0  0  0  0  0  0
   -2.9505    1.2739    1.7374 H   0  0  0  0  0  0  0  0  0  0  0  0
   -5.0020    2.5494    1.2005 H   0  0  0  0  0  0  0  0  0  0  0  0
   -5.6715    0.0341   -2.2344 H   0  0  0  0  0  0  0  0  0  0  0  0
   -4.1374   -1.6508   -2.5321 H   0  0  0  0  0  0  0  0  0  0  0  0
   -6.9695    2.9266   -0.2035 H   0  0  0  0  0  0  0  0  0  0  0  0
   -7.6062    1.4001   -0.8397 H   0  0  0  0  0  0  0  0  0  0  0  0
   -6.6969    2.4988   -1.8995 H   0  0  0  0  0  0  0  0  0  0  0  0
    4.0469   -0.8812   -1.5388 H   0  0  0  0  0  0  0  0  0  0  0  0
    6.4303   -0.9134   -2.1810 H   0  0  0  0  0  0  0  0  0  0  0  0
    7.5335    0.1442    1.8376 H   0  0  0  0  0  0  0  0  0  0  0  0
    8.1897   -0.4191   -0.5036 H   0  0  0  0  0  0  0  0  0  0  0  0
  1  2  1  0
  3  1  2  0
  1  4  1  0
  5  3  1  0
  4  6  2  0
  7  5  2  0
  6  7  1  0
  8  7  1  0
  9  8  1  0
  9 10  1  0
  9 11  2  0
 10 12  2  0
 13 10  1  0
 12 14  1  0
 15 13  2  0
 13 16  1  0
 14 17  2  0
 17 15  1  0
 17 18  1  0
  2 19  2  0
 20  2  1  0
 19 21  1  0
 22 20  2  0
 20 23  1  0
 21 24  2  0
 24 22  1  0
  3 25  1  0
  4 26  1  0
  5 27  1  0
  6 28  1  0
  8 29  1  0
 12 30  1  0
 14 31  1  0
 15 32  1  0
 16 33  1  0
 18 34  1  0
 18 35  1  0
 18 36  1  0
 19 37  1  0
 21 38  1  0
 22 39  1  0
 24 40  1  0
M  END
$$$$

     RDKit          3D

 40 42  0  0  0  0  0  0  0  0999 V2000
    3.1330   -0.1302    0.4179 C   0  0  0  0  0  0  0  0  0  0  0  0
    4.4472    0.4005    0.0630 C   0  0  0  0  0  0  0  0  0  0  0  0
    2.2423    0.6643    1.0550 C   0  0  0  0  0  0  0  0  0  0  0  0
    2.6661   -1.4514   -0.0156 C   0  0  0  0  0  0  0  0  0  0  0  0
    0.8156    0.3845    0.9699 C   0  0  0  0  0  0  0  0  0  0  0  0
    1.3499   -1.7217   -0.0722 C   0  0  0  0  0  0  0  0  0  0  0  0
    0.3838   -0.6977    0.2965 C   0  0  0  0  0  0  0  0  0  0  0  0
   -0.7974   -0.6559   -0.4006 N   0  0  0  0  0  0  0  0  0  0  0  0
   -1.8710   -1.4347   -0.0207 C   0  0  0  0  0  0  0  0  0  0  0  0
   -3.1173   -0.6366    0.0850 C   0  0  0  0  0  0  0  0  0  0  0  0
   -1.8387   -2.6437    0.1693 O   0  0  0  0  0  0  0  0  0  0  0  0
   -3.5868   -0.3839    1.3215 C   0  0  0  0  0  0  0  0  0  0  0  0
   -3.9572   -0.3888   -1.0766 C   0  0  0  0  0  0  0  0  0  0  0  0
   -4.9828   -0.0257    1.5023 C   0  0  0  0  0  0  0  0  0  0  0  0
   -5.2383   -0.0157   -0.9110 C   0  0  0  0  0  0  0  0  0  0  0  0
   -3.3559   -0.5244   -2.3053 O   0  0  0  0  0  0  0  0  0  0  0  0
   -5.7879    0.1477    0.4348 C   0  0  0  0  0  0  0  0  0  0  0  0
   -7.2376    0.5057    0.5486 C   0  0  0  0  0  0  0  0  0  0  0  0
    5.5185    0.0905    0.8283 C   0  0  0  0  0  0  0  0  0  0  0  0
    4.6790    1.1934   -1.1525 C   0  0  0  0  0  0  0  0  0  0  0  0
    6.8697    0.2922    0.3301 C   0  0  0  0  0  0  0  0  0  0  0  0
    5.9290    1.4558   -1.5729 C   0  0  0  0  0  0  0  0  0  0  0  0
    7.0562    0.9548   -0.8183 C   0  0  0  0  0  0  0  0  0  0  0  0
    8.2961    1.1773   -1.2928 F   0  0  0  0  0  0  0  0  0  0  0  0
    2.5656    1.4290    1.7555 H   0  0  0  0  0  0  0  0  0  0  0  0
    3.4068   -2.2049   -0.2607 H   0  0  0  0  0  0  0  0  0  0  0  0
    0.1396    0.9813    1.5688 H   0  0  0  0  0  0  0  0  0  0  0  0
    0.9856   -2.7047   -0.3530 H   0  0  0  0  0  0  0  0  0  0  0  0
   -0.6936   -0.6168   -1.4106 H   0  0  0  0  0  0  0  0  0  0  0  0
   -2.9660   -0.4906    2.2029 H   0  0  0  0  0  0  0  0  0  0  0  0
   -5.3455    0.0829    2.5199 H   0  0  0  0  0  0  0  0  0  0  0  0
   -5.8843    0.1910   -1.7540 H   0  0  0  0  0  0  0  0  0  0  0  0
   -4.0354   -0.4049   -2.9898 H   0  0  0  0  0  0  0  0  0  0  0  0
   -7.4409    1.4584    0.0467 H   0  0  0  0  0  0  0  0  0  0  0  0
   -7.5500    0.6075    1.5926 H   0  0  0  0  0  0  0  0  0  0  0  0
   -7.8608   -0.2694    0.0911 H   0  0  0  0  0  0  0  0  0  0  0  0
    5.4084   -0.2620    1.8477 H   0  0  0  0  0  0  0  0  0  0  0  0
    3.8168    1.5664   -1.6898 H   0  0  0  0  0  0  0  0  0  0  0  0
    7.7085   -0.0794    0.9057 H   0  0  0  0  0  0  0  0  0  0  0  0
    6.1299    2.0489   -2.4567 H   0  0  0  0  0  0  0  0  0  0  0  0
  1  2  1  0
  3  1  2  0
  1  4  1  0
  5  3  1  0
  4  6  2  0
  7  5  2  0
  6  7  1  0
  8  7  1  0
  9  8  1  0
  9 10  1  0
  9 11  2  0
 10 12  2  0
 13 10  1  0
 12 14  1  0
 15 13  2  0
 13 16  1  0
 14 17  2  0
 17 15  1  0
 17 18  1  0
  2 19  2  0
 20  2  1  0
 19 21  1  0
 22 20  2  0
 21 23  2  0
 23 22  1  0
 23 24  1  0
  3 25  1  0
  4 26  1  0
  5 27  1  0
  6 28  1  0
  8 29  1  0
 12 30  1  0
 14 31  1  0
 15 32  1  0
 16 33  1  0
 18 34  1  0
 18 35  1  0
 18 36  1  0
 19 37  1  0
 20 38  1  0
 21 39  1  0
 22 40  1  0
M  END
$$$$

     RDKit          3D

 40 42  0  0  0  0  0  0  0  0999 V2000
    2.8584   -0.3675   -0.1658 C   0  0  0  0  0  0  0  0  0  0  0  0
    4.2959   -0.1055   -0.1243 C   0  0  0  0  0  0  0  0  0  0  0  0
    1.9896    0.6671   -0.1006 C   0  0  0  0  0  0  0  0  0  0  0  0
    2.3023   -1.7247   -0.1621 C   0  0  0  0  0  0  0  0  0  0  0  0
    0.5863    0.4409    0.2074 C   0  0  0  0  0  0  0  0  0  0  0  0
    1.0041   -1.9353    0.1192 C   0  0  0  0  0  0  0  0  0  0  0  0
    0.1368   -0.8085    0.4235 C   0  0  0  0  0  0  0  0  0  0  0  0
   -0.9400   -1.0258    1.2471 N   0  0  0  0  0  0  0  0  0  0  0  0
   -2.1119   -1.5422    0.7397 C   0  0  0  0  0  0  0  0  0  0  0  0
   -3.1315   -0.5022    0.4643 C   0  0  0  0  0  0  0  0  0  0  0  0
   -2.3073   -2.7368    0.5494 O   0  0  0  0  0  0  0  0  0  0  0  0
   -3.3447   -0.1731   -0.8253 C   0  0  0  0  0  0  0  0  0  0  0  0
   -4.0162    0.0079    1.5007 C   0  0  0  0  0  0  0  0  0  0  0  0
   -4.4993    0.6320   -1.1873 C   0  0  0  0  0  0  0  0  0  0  0  0
   -5.0769    0.7669    1.1657 C   0  0  0  0  0  0  0  0  0  0  0  0
   -3.6923   -0.3121    2.7982 O   0  0  0  0  0  0  0  0  0  0  0  0
   -5.3415    1.0857   -0.2370 C   0  0  0  0  0  0  0  0  0  0  0  0
   -6.5552    1.9091   -0.5391 C   0  0  0  0  0  0  0  0  0  0  0  0
    4.9841    0.0249   -1.2815 C   0  0  0  0  0  0  0  0  0  0  0  0
    5.0442   -0.0128    1.1337 C   0  0  0  0  0  0  0  0  0  0  0  0
    6.4186    0.2614   -1.2797 C   0  0  0  0  0  0  0  0  0  0  0  0
    6.3709    0.2040    1.1372 C   0  0  0  0  0  0  0  0  0  0  0  0
    7.0850    0.3487   -0.1161 C   0  0  0  0  0  0  0  0  0  0  0  0
    2.2964    1.6836   -0.3273 H   0  0  0  0  0  0  0  0  0  0  0  0
    2.9646   -2.5512   -0.4009 H   0  0  0  0  0  0  0  0  0  0  0  0
   -0.0872    1.2907    0.1903 H   0  0  0  0  0  0  0  0  0  0  0  0
    0.5787   -2.9341    0.1057 H   0  0  0  0  0  0  0  0  0  0  0  0
   -0.7054   -1.4461    2.1382 H   0  0  0  0  0  0  0  0  0  0  0  0
   -2.7045   -0.5412   -1.6216 H   0  0  0  0  0  0  0  0  0  0  0  0
   -4.6580    0.8399   -2.2410 H   0  0  0  0  0  0  0  0  0  0  0  0
   -5.7520    1.1647    1.9152 H   0  0  0  0  0  0  0  0  0  0  0  0
   -4.3746    0.0611    3.3809 H   0  0  0  0  0  0  0  0  0  0  0  0
   -6.6810    2.0691   -1.6154 H   0  0  0  0  0  0  0  0  0  0  0  0
   -7.4588    1.4128   -0.1702 H   0  0  0  0  0  0  0  0  0  0  0  0
   -6.4800    2.8932   -0.0638 H   0  0  0  0  0  0  0  0  0  0  0  0
    4.4960   -0.0619   -2.2488 H   0  0  0  0  0  0  0  0  0  0  0  0
    4.4942   -0.1312    2.0621 H   0  0  0  0  0  0  0  0  0  0  0  0
    6.9277    0.3583   -2.2323 H   0  0  0  0  0  0  0  0  0  0  0  0
    6.9296    0.2689    2.0643 H   0  0  0  0  0  0  0  0  0  0  0  0
    8.1553    0.5214   -0.0877 H   0  0  0  0  0  0  0  0  0  0  0  0
  1  2  1  0
  3  1  2  0
  1  4  1  0
  5  3  1  0
  4  6  2  0
  7  5  2  0
  6  7  1  0
  8  7  1  0
  9  8  1  0
  9 10  1  0
  9 11  2  0
 10 12  2  0
 13 10  1  0
 12 14  1  0
 15 13  2  0
 13 16  1  0
 14 17  2  0
 17 15  1  0
 17 18  1  0
  2 19  2  0
 20  2  1  0
 19 21  1  0
 22 20  2  0
 21 23  2  0
 23 22  1  0
  3 24  1  0
  4 25  1  0
  5 26  1  0
  6 27  1  0
  8 28  1  0
 12 29  1  0
 14 30  1  0
 15 31  1  0
 16 32  1  0
 18 33  1  0
 18 34  1  0
 18 35  1  0
 19 36  1  0
 20 37  1  0
 21 38  1  0
 22 39  1  0
 23 40  1  0
M  END
$$$$

     RDKit          3D

 40 42  0  0  0  0  0  0  0  0999 V2000
    2.8952   -0.1160   -0.0578 C   0  0  0  0  0  0  0  0  0  0  0  0
    4.2302   -0.6052    0.2823 C   0  0  0  0  0  0  0  0  0  0  0  0
    1.8833   -1.0001   -0.2257 C   0  0  0  0  0  0  0  0  0  0  0  0
    2.5761    1.3141   -0.1605 C   0  0  0  0  0  0  0  0  0  0  0  0
    0.5025   -0.5479   -0.3070 C   0  0  0  0  0  0  0  0  0  0  0  0
    1.2978    1.7304   -0.2209 C   0  0  0  0  0  0  0  0  0  0  0  0
    0.2113    0.7598   -0.1747 C   0  0  0  0  0  0  0  0  0  0  0  0
   -0.9718    1.1516    0.4086 N   0  0  0  0  0  0  0  0  0  0  0  0
   -1.8816    1.8961   -0.3062 C   0  0  0  0  0  0  0  0  0  0  0  0
   -3.1680    1.2063   -0.5824 C   0  0  0  0  0  0  0  0  0  0  0  0
   -1.7407    3.0841   -0.5866 O   0  0  0  0  0  0  0  0  0  0  0  0
   -3.1791    0.0167   -1.2134 C   0  0  0  0  0  0  0  0  0  0  0  0
   -4.3992    1.6919    0.0311 C   0  0  0  0  0  0  0  0  0  0  0  0
   -4.2319   -0.9380   -0.9026 C   0  0  0  0  0  0  0  0  0  0  0  0
   -5.4246    0.8457    0.2299 C   0  0  0  0  0  0  0  0  0  0  0  0
   -4.4969    3.0301    0.3414 O   0  0  0  0  0  0  0  0  0  0  0  0
   -5.3186   -0.5473   -0.2037 C   0  0  0  0  0  0  0  0  0  0  0  0
   -6.4528   -1.4620    0.1426 C   0  0  0  0  0  0  0  0  0  0  0  0
    5.1067   -0.8897   -0.7097 C   0  0  0  0  0  0  0  0  0  0  0  0
    4.6802   -0.8046    1.6651 C   0  0  0  0  0  0  0  0  0  0  0  0
    6.4623   -1.3279   -0.4097 C   0  0  0  0  0  0  0  0  0  0  0  0
    5.9223   -1.2278    1.9487 C   0  0  0  0  0  0  0  0  0  0  0  0
    3.8128   -0.5512    2.6668 F   0  0  0  0  0  0  0  0  0  0  0  0
    6.8417   -1.4888    0.8672 C   0  0  0  0  0  0  0  0  0  0  0  0
    8.0898   -1.8928    1.1700 F   0  0  0  0  0  0  0  0  0  0  0  0
    2.0703   -2.0573   -0.3921 H   0  0  0  0  0  0  0  0  0  0  0  0
    3.3966    2.0256   -0.1968 H   0  0  0  0  0  0  0  0  0  0  0  0
   -0.2555   -1.2753   -0.5792 H   0  0  0  0  0  0  0  0  0  0  0  0
    1.0562    2.7854   -0.3191 H   0  0  0  0  0  0  0  0  0  0  0  0
   -0.8586    1.4942    1.3563 H   0  0  0  0  0  0  0  0  0  0  0  0
   -2.4543   -0.2353   -1.9807 H   0  0  0  0  0  0  0  0  0  0  0  0
   -4.1177   -1.9542   -1.2628 H   0  0  0  0  0  0  0  0  0  0  0  0
   -6.3526    1.1956    0.6715 H   0  0  0  0  0  0  0  0  0  0  0  0
   -3.7160    3.4897   -0.0311 H   0  0  0  0  0  0  0  0  0  0  0  0
   -6.2786   -2.4801   -0.2215 H   0  0  0  0  0  0  0  0  0  0  0  0
   -7.3874   -1.1049   -0.3030 H   0  0  0  0  0  0  0  0  0  0  0  0
   -6.5854   -1.5177    1.2285 H   0  0  0  0  0  0  0  0  0  0  0  0
    4.8324   -0.7997   -1.7563 H   0  0  0  0  0  0  0  0  0  0  0  0
    7.1489   -1.5192   -1.2255 H   0  0  0  0  0  0  0  0  0  0  0  0
    6.2549   -1.3741    2.9676 H   0  0  0  0  0  0  0  0  0  0  0  0
  1  2  1  0
  3  1  2  0
  1  4  1  0
  5  3  1  0
  4  6  2  0
  7  5  2  0
  6  7  1  0
  8  7  1  0
  9  8  1  0
  9 10  1  0
  9 11  2  0
 10 12  2  0
 13 10  1  0
 12 14  1  0
 15 13  2  0
 13 16  1  0
 14 17  2  0
 17 15  1  0
 17 18  1  0
  2 19  2  0
 20  2  1  0
 19 21  1  0
 22 20  2  0
 20 23  1  0
 21 24  2  0
 24 22  1  0
 24 25  1  0
  3 26  1  0
  4 27  1  0
  5 28  1  0
  6 29  1  0
  8 30  1  0
 12 31  1  0
 14 32  1  0
 15 33  1  0
 16 34  1  0
 18 35  1  0
 18 36  1  0
 18 37  1  0
 19 38  1  0
 21 39  1  0
 22 40  1  0
M  END
$$$$

     RDKit          3D

 34 35  0  0  0  0  0  0  0  0999 V2000
    4.6227    1.8316   -0.5509 O   0  0  0  0  0  0  0  0  0  0  0  0
    3.4820    1.0682   -0.6429 C   0  0  0  0  0  0  0  0  0  0  0  0
    5.3732    1.7507   -1.7589 C   0  0  0  0  0  0  0  0  0  0  0  0
    2.2720    1.6131   -0.8693 C   0  0  0  0  0  0  0  0  0  0  0  0
    3.5809   -0.2898   -0.1314 C   0  0  0  0  0  0  0  0  0  0  0  0
    1.0718    0.8071   -0.6989 C   0  0  0  0  0  0  0  0  0  0  0  0
    2.4725   -1.0423   -0.0056 C   0  0  0  0  0  0  0  0  0  0  0  0
    1.1751   -0.4970   -0.3806 C   0  0  0  0  0  0  0  0  0  0  0  0
    0.1655   -1.3706   -0.7020 N   0  0  0  0  0  0  0  0  0  0  0  0
   -0.4710   -2.1019    0.2743 C   0  0  0  0  0  0  0  0  0  0  0  0
   -1.7219   -1.4945    0.7931 C   0  0  0  0  0  0  0  0  0  0  0  0
   -0.1250   -3.2282    0.6176 O   0  0  0  0  0  0  0  0  0  0  0  0
   -1.6380   -0.3777    1.5381 C   0  0  0  0  0  0  0  0  0  0  0  0
   -3.0045   -1.8424    0.1988 C   0  0  0  0  0  0  0  0  0  0  0  0
   -2.5838    0.6977    1.2838 C   0  0  0  0  0  0  0  0  0  0  0  0
   -3.9470   -0.8953    0.0645 C   0  0  0  0  0  0  0  0  0  0  0  0
   -3.2274   -3.1546   -0.1572 O   0  0  0  0  0  0  0  0  0  0  0  0
   -3.6970    0.4594    0.5585 C   0  0  0  0  0  0  0  0  0  0  0  0
   -4.7152    1.5072    0.2386 C   0  0  0  0  0  0  0  0  0  0  0  0
    5.8413    0.7657   -1.8557 H   0  0  0  0  0  0  0  0  0  0  0  0
    4.7562    1.9641   -2.6404 H   0  0  0  0  0  0  0  0  0  0  0  0
    6.1700    2.4996   -1.7144 H   0  0  0  0  0  0  0  0  0  0  0  0
    2.1589    2.6743   -1.0509 H   0  0  0  0  0  0  0  0  0  0  0  0
    4.5552   -0.6697    0.1557 H   0  0  0  0  0  0  0  0  0  0  0  0
    0.1148    1.3187   -0.6893 H   0  0  0  0  0  0  0  0  0  0  0  0
    2.5246   -2.0467    0.4003 H   0  0  0  0  0  0  0  0  0  0  0  0
    0.3488   -1.9163   -1.5348 H   0  0  0  0  0  0  0  0  0  0  0  0
   -0.8449   -0.2217    2.2617 H   0  0  0  0  0  0  0  0  0  0  0  0
   -2.3597    1.6777    1.6904 H   0  0  0  0  0  0  0  0  0  0  0  0
   -4.9165   -1.1360   -0.3602 H   0  0  0  0  0  0  0  0  0  0  0  0
   -2.4879   -3.6918    0.1914 H   0  0  0  0  0  0  0  0  0  0  0  0
   -4.4322    2.4866    0.6407 H   0  0  0  0  0  0  0  0  0  0  0  0
   -4.8245    1.6153   -0.8458 H   0  0  0  0  0  0  0  0  0  0  0  0
   -5.6889    1.2391    0.6620 H   0  0  0  0  0  0  0  0  0  0  0  0
  1  2  1  0
  1  3  1  0
  4  2  2  0
  2  5  1  0
  6  4  1  0
  5  7  2  0
  8  6  2  0
  7  8  1  0
  9  8  1  0
 10  9  1  0
 10 11  1  0
 10 12  2  0
 11 13  2  0
 14 11  1  0
 13 15  1  0
 16 14  2  0
 14 17  1  0
 15 18  2  0
 18 16  1  0
 18 19  1  0
  3 20  1  0
  3 21  1  0
  3 22  1  0
  4 23  1  0
  5 24  1  0
  6 25  1  0
  7 26  1  0
  9 27  1  0
 13 28  1  0
 15 29  1  0
 16 30  1  0
 17 31  1  0
 19 32  1  0
 19 33  1  0
 19 34  1  0
M  END
$$$$

     RDKit          3D

 39 40  0  0  0  0  0  0  0  0999 V2000
   -4.7064   -0.5542    0.2765 C   0  0  0  0  0  0  0  0  0  0  0  0
   -3.2859   -0.0566    0.4622 C   0  0  0  0  0  0  0  0  0  0  0  0
   -4.9444   -1.1376   -1.1187 C   0  0  0  0  0  0  0  0  0  0  0  0
   -5.1026   -1.5576    1.3630 C   0  0  0  0  0  0  0  0  0  0  0  0
   -3.0084    1.2357    0.7390 C   0  0  0  0  0  0  0  0  0  0  0  0
   -2.1637   -0.9679    0.2325 C   0  0  0  0  0  0  0  0  0  0  0  0
   -1.6751    1.7657    0.5008 C   0  0  0  0  0  0  0  0  0  0  0  0
   -0.9285   -0.4764    0.0213 C   0  0  0  0  0  0  0  0  0  0  0  0
   -0.7094    0.9599    0.0225 C   0  0  0  0  0  0  0  0  0  0  0  0
    0.2787    1.4388   -0.8022 N   0  0  0  0  0  0  0  0  0  0  0  0
    1.4122    2.0065   -0.2642 C   0  0  0  0  0  0  0  0  0  0  0  0
    2.5855    1.1041   -0.3037 C   0  0  0  0  0  0  0  0  0  0  0  0
    1.4619    3.1437    0.1899 O   0  0  0  0  0  0  0  0  0  0  0  0
    2.9785    0.5471    0.8579 C   0  0  0  0  0  0  0  0  0  0  0  0
    3.3882    0.9244   -1.5039 C   0  0  0  0  0  0  0  0  0  0  0  0
    4.2032   -0.2325    0.9134 C   0  0  0  0  0  0  0  0  0  0  0  0
    4.5272    0.2059   -1.4516 C   0  0  0  0  0  0  0  0  0  0  0  0
    2.9141    1.5091   -2.6542 O   0  0  0  0  0  0  0  0  0  0  0  0
    4.9574   -0.4004   -0.1918 C   0  0  0  0  0  0  0  0  0  0  0  0
    6.2305   -1.1879   -0.2039 C   0  0  0  0  0  0  0  0  0  0  0  0
   -5.3882    0.3028    0.3756 H   0  0  0  0  0  0  0  0  0  0  0  0
   -6.0167   -1.2937   -1.2860 H   0  0  0  0  0  0  0  0  0  0  0  0
   -4.4406   -2.1013   -1.2534 H   0  0  0  0  0  0  0  0  0  0  0  0
   -4.5905   -0.4511   -1.8990 H   0  0  0  0  0  0  0  0  0  0  0  0
   -4.5599   -2.5065    1.2641 H   0  0  0  0  0  0  0  0  0  0  0  0
   -6.1746   -1.7776    1.3026 H   0  0  0  0  0  0  0  0  0  0  0  0
   -4.9081   -1.1539    2.3646 H   0  0  0  0  0  0  0  0  0  0  0  0
   -3.7186    1.8729    1.2541 H   0  0  0  0  0  0  0  0  0  0  0  0
   -2.3359   -2.0382    0.2507 H   0  0  0  0  0  0  0  0  0  0  0  0
   -1.4478    2.7700    0.8478 H   0  0  0  0  0  0  0  0  0  0  0  0
   -0.0799   -1.1334   -0.1273 H   0  0  0  0  0  0  0  0  0  0  0  0
   -0.0641    1.9704   -1.5914 H   0  0  0  0  0  0  0  0  0  0  0  0
    2.4325    0.7125    1.7827 H   0  0  0  0  0  0  0  0  0  0  0  0
    4.4849   -0.6593    1.8722 H   0  0  0  0  0  0  0  0  0  0  0  0
    5.1467    0.0551   -2.3293 H   0  0  0  0  0  0  0  0  0  0  0  0
    3.5568    1.3456   -3.3637 H   0  0  0  0  0  0  0  0  0  0  0  0
    6.1601   -2.0223   -0.9111 H   0  0  0  0  0  0  0  0  0  0  0  0
    7.0735   -0.5540   -0.4978 H   0  0  0  0  0  0  0  0  0  0  0  0
    6.4574   -1.6076    0.7816 H   0  0  0  0  0  0  0  0  0  0  0  0
  1  2  1  0
  1  3  1  0
  1  4  1  0
  5  2  2  0
  2  6  1  0
  7  5  1  0
  6  8  2  0
  9  7  2  0
  8  9  1  0
 10  9  1  0
 11 10  1  0
 11 12  1  0
 11 13  2  0
 12 14  2  0
 15 12  1  0
 14 16  1  0
 17 15  2  0
 15 18  1  0
 16 19  2  0
 19 17  1  0
 19 20  1  0
  1 21  1  0
  3 22  1  0
  3 23  1  0
  3 24  1  0
  4 25  1  0
  4 26  1  0
  4 27  1  0
  5 28  1  0
  6 29  1  0
  7 30  1  0
  8 31  1  0
 10 32  1  0
 14 33  1  0
 16 34  1  0
 17 35  1  0
 18 36  1  0
 20 37  1  0
 20 38  1  0
 20 39  1  0
M  END
$$$$

     RDKit          3D

 19 19  0  0  0  0  0  0  0  0999 V2000
    1.2590    0.5909    0.3935 C   0  0  0  0  0  0  0  0  0  0  0  0
    1.8866    0.1966   -0.7384 O   0  0  0  0  0  0  0  0  0  0  0  0
   -0.1432    0.1348    0.4216 C   0  0  0  0  0  0  0  0  0  0  0  0
    1.7317    1.3001    1.2710 O   0  0  0  0  0  0  0  0  0  0  0  0
   -0.4165   -1.1630    0.1826 C   0  0  0  0  0  0  0  0  0  0  0  0
   -1.2346    1.1041    0.4676 C   0  0  0  0  0  0  0  0  0  0  0  0
   -1.6790   -1.5143   -0.4490 C   0  0  0  0  0  0  0  0  0  0  0  0
   -2.4465    0.7599   -0.0202 C   0  0  0  0  0  0  0  0  0  0  0  0
   -0.9843    2.3308    1.0521 O   0  0  0  0  0  0  0  0  0  0  0  0
   -1.8919   -3.2593   -1.0637 Br  0  0  0  0  0  0  0  0  0  0  0  0
   -2.6510   -0.5871   -0.5479 C   0  0  0  0  0  0  0  0  0  0  0  0
   -3.9219    1.9055   -0.0256 Br  0  0  0  0  0  0  0  0  0  0  0  0
    3.2202   -0.2501   -0.5003 C   0  0  0  0  0  0  0  0  0  0  0  0
    0.2634   -1.9526    0.4855 H   0  0  0  0  0  0  0  0  0  0  0  0
   -0.0871    2.3362    1.4429 H   0  0  0  0  0  0  0  0  0  0  0  0
   -3.6067   -0.8228   -1.0056 H   0  0  0  0  0  0  0  0  0  0  0  0
    3.2401   -1.0118    0.2861 H   0  0  0  0  0  0  0  0  0  0  0  0
    3.8597    0.5952   -0.2279 H   0  0  0  0  0  0  0  0  0  0  0  0
    3.6020   -0.6930   -1.4242 H   0  0  0  0  0  0  0  0  0  0  0  0
  1  2  1  0
  1  3  1  0
  1  4  2  0
  3  5  2  0
  6  3  1  0
  5  7  1  0
  8  6  2  0
  6  9  1  0
  7 10  1  0
  7 11  2  0
 11  8  1  0
  8 12  1  0
  2 13  1  0
  5 14  1  0
  9 15  1  0
 11 16  1  0
 13 17  1  0
 13 18  1  0
 13 19  1  0
M  END
$$$$

     RDKit          3D

 28 29  0  0  0  0  0  0  0  0999 V2000
    0.1864    1.2174    0.9488 N   0  0  0  0  0  0  0  0  0  0  0  0
    1.2559    1.0119    0.1002 C   0  0  0  0  0  0  0  0  0  0  0  0
   -0.3836    0.1431    1.6006 C   0  0  0  0  0  0  0  0  0  0  0  0
   -1.5156   -0.4799    0.8698 C   0  0  0  0  0  0  0  0  0  0  0  0
   -0.0128   -0.2688    2.6943 O   0  0  0  0  0  0  0  0  0  0  0  0
   -1.2524   -1.6524    0.2584 C   0  0  0  0  0  0  0  0  0  0  0  0
   -2.7261    0.2550    0.5350 C   0  0  0  0  0  0  0  0  0  0  0  0
   -1.9771   -2.0066   -0.9519 C   0  0  0  0  0  0  0  0  0  0  0  0
   -3.4557   -0.1151   -0.5403 C   0  0  0  0  0  0  0  0  0  0  0  0
   -3.0530    1.2951    1.3756 O   0  0  0  0  0  0  0  0  0  0  0  0
   -1.4125   -3.5059   -1.9015 Br  0  0  0  0  0  0  0  0  0  0  0  0
   -3.0353   -1.2651   -1.3337 C   0  0  0  0  0  0  0  0  0  0  0  0
   -5.0142    0.7706   -1.0614 Br  0  0  0  0  0  0  0  0  0  0  0  0
    1.0885    0.6216   -1.1769 C   0  0  0  0  0  0  0  0  0  0  0  0
    2.6041    1.0683    0.6533 C   0  0  0  0  0  0  0  0  0  0  0  0
    2.1464   -0.1329   -1.8438 C   0  0  0  0  0  0  0  0  0  0  0  0
    3.6186    0.4658    0.0067 C   0  0  0  0  0  0  0  0  0  0  0  0
    2.7382    1.7725    1.8253 O   0  0  0  0  0  0  0  0  0  0  0  0
    1.7811   -1.0355   -3.6596 I   0  0  0  0  0  0  0  0  0  0  0  0
    3.3631   -0.2044   -1.2627 C   0  0  0  0  0  0  0  0  0  0  0  0
    0.4089    1.9341    1.6367 H   0  0  0  0  0  0  0  0  0  0  0  0
   -0.5447   -2.3579    0.6852 H   0  0  0  0  0  0  0  0  0  0  0  0
   -3.8912    1.6781    1.0578 H   0  0  0  0  0  0  0  0  0  0  0  0
   -3.5999   -1.5145   -2.2268 H   0  0  0  0  0  0  0  0  0  0  0  0
    0.2114    0.9177   -1.7415 H   0  0  0  0  0  0  0  0  0  0  0  0
    4.6364    0.4801    0.3784 H   0  0  0  0  0  0  0  0  0  0  0  0
    3.6462    1.6498    2.1505 H   0  0  0  0  0  0  0  0  0  0  0  0
    4.1889   -0.7423   -1.7176 H   0  0  0  0  0  0  0  0  0  0  0  0
  1  2  1  0
  3  1  1  0
  3  4  1  0
  3  5  2  0
  4  6  2  0
  7  4  1  0
  6  8  1  0
  9  7  2  0
  7 10  1  0
  8 11  1  0
  8 12  2  0
 12  9  1  0
  9 13  1  0
  2 14  2  0
 15  2  1  0
 14 16  1  0
 17 15  2  0
 15 18  1  0
 16 19  1  0
 16 20  2  0
 20 17  1  0
  1 21  1  0
  6 22  1  0
 10 23  1  0
 12 24  1  0
 14 25  1  0
 17 26  1  0
 18 27  1  0
 20 28  1  0
M  END
$$$$

     RDKit          3D

 27 28  0  0  0  0  0  0  0  0999 V2000
   -0.6370    0.0044    0.5749 N   0  0  0  0  0  0  0  0  0  0  0  0
   -1.9240    0.0819    0.0809 C   0  0  0  0  0  0  0  0  0  0  0  0
    0.2672   -0.8803    0.0241 C   0  0  0  0  0  0  0  0  0  0  0  0
    1.6130   -0.2703   -0.1081 C   0  0  0  0  0  0  0  0  0  0  0  0
    0.0353   -2.0351   -0.3079 O   0  0  0  0  0  0  0  0  0  0  0  0
    2.0733   -0.0933   -1.3626 C   0  0  0  0  0  0  0  0  0  0  0  0
    2.5368   -0.2486    1.0171 C   0  0  0  0  0  0  0  0  0  0  0  0
    3.5068   -0.1081   -1.6131 C   0  0  0  0  0  0  0  0  0  0  0  0
    3.8683   -0.2119    0.7931 C   0  0  0  0  0  0  0  0  0  0  0  0
    1.9579   -0.2416    2.2686 O   0  0  0  0  0  0  0  0  0  0  0  0
    4.0852   -0.0264   -3.3827 Br  0  0  0  0  0  0  0  0  0  0  0  0
    4.3656   -0.1691   -0.5770 C   0  0  0  0  0  0  0  0  0  0  0  0
    5.1269   -0.1802    2.1716 Br  0  0  0  0  0  0  0  0  0  0  0  0
   -2.1808    0.8667   -0.9855 C   0  0  0  0  0  0  0  0  0  0  0  0
   -3.0467   -0.3492    0.9287 C   0  0  0  0  0  0  0  0  0  0  0  0
   -3.4622    1.5388   -1.1085 C   0  0  0  0  0  0  0  0  0  0  0  0
   -4.2594    0.2155    0.7558 C   0  0  0  0  0  0  0  0  0  0  0  0
   -2.7756   -1.6773    2.2175 Br  0  0  0  0  0  0  0  0  0  0  0  0
   -4.4640    1.2239   -0.2702 C   0  0  0  0  0  0  0  0  0  0  0  0
   -0.5849   -0.0076    1.5901 H   0  0  0  0  0  0  0  0  0  0  0  0
    1.3914    0.0029   -2.2019 H   0  0  0  0  0  0  0  0  0  0  0  0
    2.6836   -0.2584    2.9213 H   0  0  0  0  0  0  0  0  0  0  0  0
    5.4387   -0.1796   -0.7406 H   0  0  0  0  0  0  0  0  0  0  0  0
   -1.4741    0.9632   -1.8023 H   0  0  0  0  0  0  0  0  0  0  0  0
   -3.5891    2.2752   -1.8949 H   0  0  0  0  0  0  0  0  0  0  0  0
   -5.1154   -0.0733    1.3568 H   0  0  0  0  0  0  0  0  0  0  0  0
   -5.4369    1.6984   -0.3452 H   0  0  0  0  0  0  0  0  0  0  0  0
  1  2  1  0
  3  1  1  0
  3  4  1  0
  3  5  2  0
  4  6  2  0
  7  4  1  0
  6  8  1  0
  9  7  2  0
  7 10  1  0
  8 11  1  0
  8 12  2  0
 12  9  1  0
  9 13  1  0
  2 14  2  0
 15  2  1  0
 14 16  1  0
 17 15  2  0
 15 18  1  0
 16 19  2  0
 19 17  1  0
  1 20  1  0
  6 21  1  0
 10 22  1  0
 12 23  1  0
 14 24  1  0
 16 25  1  0
 17 26  1  0
 19 27  1  0
M  END
$$$$

     RDKit          3D

 30 31  0  0  0  0  0  0  0  0999 V2000
   -0.3186   -0.9556    1.0253 N   0  0  0  0  0  0  0  0  0  0  0  0
    0.9277   -0.4413    0.7577 C   0  0  0  0  0  0  0  0  0  0  0  0
   -1.1152   -1.4137    0.0004 C   0  0  0  0  0  0  0  0  0  0  0  0
   -2.0838   -0.4005   -0.4824 C   0  0  0  0  0  0  0  0  0  0  0  0
   -1.0562   -2.5470   -0.4605 O   0  0  0  0  0  0  0  0  0  0  0  0
   -1.8353    0.1475   -1.6888 C   0  0  0  0  0  0  0  0  0  0  0  0
   -3.3760   -0.2087    0.1589 C   0  0  0  0  0  0  0  0  0  0  0  0
   -2.8871    0.8716   -2.3858 C   0  0  0  0  0  0  0  0  0  0  0  0
   -4.3483    0.4797   -0.4782 C   0  0  0  0  0  0  0  0  0  0  0  0
   -3.5099   -0.7520    1.4184 O   0  0  0  0  0  0  0  0  0  0  0  0
   -2.5055    1.5550   -4.0768 Br  0  0  0  0  0  0  0  0  0  0  0  0
   -4.0907    1.0299   -1.8032 C   0  0  0  0  0  0  0  0  0  0  0  0
   -6.0358    0.7717    0.2668 Br  0  0  0  0  0  0  0  0  0  0  0  0
    1.2116    0.8384    1.0590 C   0  0  0  0  0  0  0  0  0  0  0  0
    2.0222   -1.3784    0.5477 C   0  0  0  0  0  0  0  0  0  0  0  0
    2.5571    1.2063    1.4679 C   0  0  0  0  0  0  0  0  0  0  0  0
    3.2842   -1.0196    0.8478 C   0  0  0  0  0  0  0  0  0  0  0  0
    3.5655    0.3158    1.3685 C   0  0  0  0  0  0  0  0  0  0  0  0
    4.9778    0.6203    1.7587 C   0  0  0  0  0  0  0  0  0  0  0  0
   -0.3371   -1.5873    1.8165 H   0  0  0  0  0  0  0  0  0  0  0  0
   -0.8731    0.0193   -2.1761 H   0  0  0  0  0  0  0  0  0  0  0  0
   -4.4238   -0.5829    1.7136 H   0  0  0  0  0  0  0  0  0  0  0  0
   -4.8896    1.5651   -2.3073 H   0  0  0  0  0  0  0  0  0  0  0  0
    0.4686    1.6220    0.9631 H   0  0  0  0  0  0  0  0  0  0  0  0
    1.8004   -2.3577    0.1352 H   0  0  0  0  0  0  0  0  0  0  0  0
    2.7155    2.2136    1.8390 H   0  0  0  0  0  0  0  0  0  0  0  0
    4.1093   -1.7061    0.6863 H   0  0  0  0  0  0  0  0  0  0  0  0
    5.3247   -0.0763    2.5290 H   0  0  0  0  0  0  0  0  0  0  0  0
    5.6416    0.5359    0.8912 H   0  0  0  0  0  0  0  0  0  0  0  0
    5.0797    1.6352    2.1579 H   0  0  0  0  0  0  0  0  0  0  0  0
  1  2  1  0
  3  1  1  0
  3  4  1  0
  3  5  2  0
  4  6  2  0
  7  4  1  0
  6  8  1  0
  9  7  2  0
  7 10  1  0
  8 11  1  0
  8 12  2  0
 12  9  1  0
  9 13  1  0
  2 14  2  0
 15  2  1  0
 14 16  1  0
 17 15  2  0
 16 18  2  0
 18 17  1  0
 18 19  1  0
  1 20  1  0
  6 21  1  0
 10 22  1  0
 12 23  1  0
 14 24  1  0
 15 25  1  0
 16 26  1  0
 17 27  1  0
 19 28  1  0
 19 29  1  0
 19 30  1  0
M  END
$$$$

     RDKit          3D

 27 28  0  0  0  0  0  0  0  0999 V2000
   -0.1948    0.1922    1.7276 N   0  0  0  0  0  0  0  0  0  0  0  0
   -1.2501    0.8032    1.0885 C   0  0  0  0  0  0  0  0  0  0  0  0
    0.1551   -1.1145    1.4806 C   0  0  0  0  0  0  0  0  0  0  0  0
    1.0810   -1.3142    0.3392 C   0  0  0  0  0  0  0  0  0  0  0  0
   -0.1543   -2.0611    2.1966 O   0  0  0  0  0  0  0  0  0  0  0  0
    0.5825   -1.2236   -0.9080 C   0  0  0  0  0  0  0  0  0  0  0  0
    2.5220   -1.2554    0.5437 C   0  0  0  0  0  0  0  0  0  0  0  0
    1.3855   -0.5750   -1.9331 C   0  0  0  0  0  0  0  0  0  0  0  0
    3.3069   -0.7661   -0.4406 C   0  0  0  0  0  0  0  0  0  0  0  0
    3.0136   -1.7400    1.7381 O   0  0  0  0  0  0  0  0  0  0  0  0
    0.5464   -0.0927   -3.5235 Br  0  0  0  0  0  0  0  0  0  0  0  0
    2.6951   -0.3530   -1.7031 C   0  0  0  0  0  0  0  0  0  0  0  0
    5.1632   -0.6164   -0.3026 Br  0  0  0  0  0  0  0  0  0  0  0  0
   -2.5149    0.3810    1.2803 C   0  0  0  0  0  0  0  0  0  0  0  0
   -0.9880    1.7876    0.0348 C   0  0  0  0  0  0  0  0  0  0  0  0
   -3.5077    0.5819    0.2376 C   0  0  0  0  0  0  0  0  0  0  0  0
   -1.9385    2.0518   -0.8821 C   0  0  0  0  0  0  0  0  0  0  0  0
    0.5252    2.6188   -0.0050 Cl  0  0  0  0  0  0  0  0  0  0  0  0
   -3.2282    1.3825   -0.8062 C   0  0  0  0  0  0  0  0  0  0  0  0
    0.5629    0.8037    2.0126 H   0  0  0  0  0  0  0  0  0  0  0  0
   -0.3822   -1.6495   -1.1648 H   0  0  0  0  0  0  0  0  0  0  0  0
    2.3116   -2.2519    2.1876 H   0  0  0  0  0  0  0  0  0  0  0  0
    3.3230    0.1283   -2.4463 H   0  0  0  0  0  0  0  0  0  0  0  0
   -2.8144   -0.1283    2.1909 H   0  0  0  0  0  0  0  0  0  0  0  0
   -4.4655    0.0803    0.3325 H   0  0  0  0  0  0  0  0  0  0  0  0
   -1.7860    2.7747   -1.6769 H   0  0  0  0  0  0  0  0  0  0  0  0
   -3.9495    1.5556   -1.5984 H   0  0  0  0  0  0  0  0  0  0  0  0
  1  2  1  0
  3  1  1  0
  3  4  1  0
  3  5  2  0
  4  6  2  0
  7  4  1  0
  6  8  1  0
  9  7  2  0
  7 10  1  0
  8 11  1  0
  8 12  2  0
 12  9  1  0
  9 13  1  0
  2 14  2  0
 15  2  1  0
 14 16  1  0
 17 15  2  0
 15 18  1  0
 16 19  2  0
 19 17  1  0
  1 20  1  0
  6 21  1  0
 10 22  1  0
 12 23  1  0
 14 24  1  0
 16 25  1  0
 17 26  1  0
 19 27  1  0
M  END
$$$$

     RDKit          3D

 27 28  0  0  0  0  0  0  0  0999 V2000
   -0.3507   -1.1856    0.8665 N   0  0  0  0  0  0  0  0  0  0  0  0
   -1.5928   -0.7968    0.4173 C   0  0  0  0  0  0  0  0  0  0  0  0
    0.5045   -0.2783    1.4550 C   0  0  0  0  0  0  0  0  0  0  0  0
    1.4634    0.3335    0.4993 C   0  0  0  0  0  0  0  0  0  0  0  0
    0.4965    0.0067    2.6466 O   0  0  0  0  0  0  0  0  0  0  0  0
    1.4350    1.6757    0.3797 C   0  0  0  0  0  0  0  0  0  0  0  0
    2.5597   -0.4287   -0.0811 C   0  0  0  0  0  0  0  0  0  0  0  0
    2.5929    2.3775   -0.1527 C   0  0  0  0  0  0  0  0  0  0  0  0
    3.6169    0.2175   -0.6183 C   0  0  0  0  0  0  0  0  0  0  0  0
    2.4081   -1.7996   -0.0746 O   0  0  0  0  0  0  0  0  0  0  0  0
    2.5585    4.2403   -0.1562 Br  0  0  0  0  0  0  0  0  0  0  0  0
    3.6402    1.6754   -0.6268 C   0  0  0  0  0  0  0  0  0  0  0  0
    5.0594   -0.6755   -1.3975 Br  0  0  0  0  0  0  0  0  0  0  0  0
   -2.6033   -0.6224    1.2931 C   0  0  0  0  0  0  0  0  0  0  0  0
   -1.8825   -0.7774   -1.0207 C   0  0  0  0  0  0  0  0  0  0  0  0
   -3.9700   -0.4701    0.8230 C   0  0  0  0  0  0  0  0  0  0  0  0
   -3.1484   -0.6210   -1.4529 C   0  0  0  0  0  0  0  0  0  0  0  0
   -0.6027   -0.9570   -2.1679 Cl  0  0  0  0  0  0  0  0  0  0  0  0
   -4.2291   -0.4682   -0.4958 C   0  0  0  0  0  0  0  0  0  0  0  0
   -5.8336   -0.2868   -1.0895 Cl  0  0  0  0  0  0  0  0  0  0  0  0
    0.1284   -1.8875    0.3071 H   0  0  0  0  0  0  0  0  0  0  0  0
    0.5827    2.2526    0.7277 H   0  0  0  0  0  0  0  0  0  0  0  0
    3.2180   -2.1796   -0.4676 H   0  0  0  0  0  0  0  0  0  0  0  0
    4.5136    2.1787   -1.0296 H   0  0  0  0  0  0  0  0  0  0  0  0
   -2.4213   -0.5629    2.3629 H   0  0  0  0  0  0  0  0  0  0  0  0
   -4.7548   -0.3559    1.5638 H   0  0  0  0  0  0  0  0  0  0  0  0
   -3.3886   -0.6047   -2.5106 H   0  0  0  0  0  0  0  0  0  0  0  0
  1  2  1  0
  3  1  1  0
  3  4  1  0
  3  5  2  0
  4  6  2  0
  7  4  1  0
  6  8  1  0
  9  7  2  0
  7 10  1  0
  8 11  1  0
  8 12  2  0
 12  9  1  0
  9 13  1  0
  2 14  2  0
 15  2  1  0
 14 16  1  0
 17 15  2  0
 15 18  1  0
 16 19  2  0
 19 17  1  0
 19 20  1  0
  1 21  1  0
  6 22  1  0
 10 23  1  0
 12 24  1  0
 14 25  1  0
 16 26  1  0
 17 27  1  0
M  END
$$$$

     RDKit          3D

 27 28  0  0  0  0  0  0  0  0999 V2000
   -0.5917    1.0008    1.1449 N   0  0  0  0  0  0  0  0  0  0  0  0
   -1.5925    0.6615    0.2628 C   0  0  0  0  0  0  0  0  0  0  0  0
    0.3201    0.0465    1.5420 C   0  0  0  0  0  0  0  0  0  0  0  0
    1.4868   -0.0806    0.6316 C   0  0  0  0  0  0  0  0  0  0  0  0
    0.2266   -0.5720    2.5959 O   0  0  0  0  0  0  0  0  0  0  0  0
    2.5692    0.6444    0.9812 C   0  0  0  0  0  0  0  0  0  0  0  0
    1.6612   -1.2753   -0.1830 C   0  0  0  0  0  0  0  0  0  0  0  0
    3.8946    0.0535    0.8720 C   0  0  0  0  0  0  0  0  0  0  0  0
    2.8971   -1.7881   -0.3685 C   0  0  0  0  0  0  0  0  0  0  0  0
    0.5138   -1.7911   -0.7417 O   0  0  0  0  0  0  0  0  0  0  0  0
    5.3282    0.9787    1.6200 Br  0  0  0  0  0  0  0  0  0  0  0  0
    4.0489   -1.1172    0.2236 C   0  0  0  0  0  0  0  0  0  0  0  0
    3.2178   -3.3157   -1.3923 Br  0  0  0  0  0  0  0  0  0  0  0  0
   -2.6926   -0.0050    0.6642 C   0  0  0  0  0  0  0  0  0  0  0  0
   -1.6011    1.3482   -1.0208 C   0  0  0  0  0  0  0  0  0  0  0  0
   -3.9459    0.1614   -0.0563 C   0  0  0  0  0  0  0  0  0  0  0  0
   -2.7456    1.4518   -1.7226 C   0  0  0  0  0  0  0  0  0  0  0  0
   -3.9683    0.8603   -1.2054 C   0  0  0  0  0  0  0  0  0  0  0  0
   -5.4233    1.0635   -2.1005 Cl  0  0  0  0  0  0  0  0  0  0  0  0
   -0.9365    1.5145    1.9496 H   0  0  0  0  0  0  0  0  0  0  0  0
    2.4717    1.6691    1.3254 H   0  0  0  0  0  0  0  0  0  0  0  0
    0.7616   -2.5972   -1.2306 H   0  0  0  0  0  0  0  0  0  0  0  0
    5.0273   -1.5763    0.1223 H   0  0  0  0  0  0  0  0  0  0  0  0
   -2.6493   -0.7495    1.4536 H   0  0  0  0  0  0  0  0  0  0  0  0
   -0.6721    1.7619   -1.3979 H   0  0  0  0  0  0  0  0  0  0  0  0
   -4.8359   -0.3068    0.3497 H   0  0  0  0  0  0  0  0  0  0  0  0
   -2.7699    1.9587   -2.6808 H   0  0  0  0  0  0  0  0  0  0  0  0
  1  2  1  0
  3  1  1  0
  3  4  1  0
  3  5  2  0
  4  6  2  0
  7  4  1  0
  6  8  1  0
  9  7  2  0
  7 10  1  0
  8 11  1  0
  8 12  2  0
 12  9  1  0
  9 13  1  0
  2 14  2  0
 15  2  1  0
 14 16  1  0
 17 15  2  0
 16 18  2  0
 18 17  1  0
 18 19  1  0
  1 20  1  0
  6 21  1  0
 10 22  1  0
 12 23  1  0
 14 24  1  0
 15 25  1  0
 16 26  1  0
 17 27  1  0
M  END
$$$$

     RDKit          3D

 28 29  0  0  0  0  0  0  0  0999 V2000
   -0.3305    0.2392    1.2287 N   0  0  0  0  0  0  0  0  0  0  0  0
   -1.5989    0.3081    0.6896 C   0  0  0  0  0  0  0  0  0  0  0  0
    0.5570   -0.7069    0.7587 C   0  0  0  0  0  0  0  0  0  0  0  0
    1.6335   -0.1200   -0.0750 C   0  0  0  0  0  0  0  0  0  0  0  0
    0.4893   -1.9065    0.9962 O   0  0  0  0  0  0  0  0  0  0  0  0
    1.5649   -0.3475   -1.4022 C   0  0  0  0  0  0  0  0  0  0  0  0
    2.8398    0.4443    0.5127 C   0  0  0  0  0  0  0  0  0  0  0  0
    2.7126   -0.0576   -2.2484 C   0  0  0  0  0  0  0  0  0  0  0  0
    3.9073    0.7126   -0.2710 C   0  0  0  0  0  0  0  0  0  0  0  0
    2.7956    0.6862    1.8688 O   0  0  0  0  0  0  0  0  0  0  0  0
    2.5622   -0.4076   -4.0729 Br  0  0  0  0  0  0  0  0  0  0  0  0
    3.8365    0.4454   -1.7026 C   0  0  0  0  0  0  0  0  0  0  0  0
    5.4934    1.4417    0.3927 Br  0  0  0  0  0  0  0  0  0  0  0  0
   -1.8307    0.8612   -0.5147 C   0  0  0  0  0  0  0  0  0  0  0  0
   -2.6802   -0.3976    1.3692 C   0  0  0  0  0  0  0  0  0  0  0  0
   -2.9685    0.4062   -1.2998 C   0  0  0  0  0  0  0  0  0  0  0  0
   -3.7939   -0.7388    0.6853 C   0  0  0  0  0  0  0  0  0  0  0  0
   -2.4642   -0.6548    2.7066 O   0  0  0  0  0  0  0  0  0  0  0  0
   -3.0696    0.9457   -3.0797 Br  0  0  0  0  0  0  0  0  0  0  0  0
   -3.9123   -0.3616   -0.7199 C   0  0  0  0  0  0  0  0  0  0  0  0
   -5.2220   -1.6548    1.4615 Br  0  0  0  0  0  0  0  0  0  0  0  0
   -0.3648    0.1949    2.2455 H   0  0  0  0  0  0  0  0  0  0  0  0
    0.6935   -0.8217   -1.8458 H   0  0  0  0  0  0  0  0  0  0  0  0
    3.6689    1.0315    2.1322 H   0  0  0  0  0  0  0  0  0  0  0  0
    4.7053    0.6657   -2.3157 H   0  0  0  0  0  0  0  0  0  0  0  0
   -1.2331    1.6921   -0.8738 H   0  0  0  0  0  0  0  0  0  0  0  0
   -3.2163   -1.1910    3.0194 H   0  0  0  0  0  0  0  0  0  0  0  0
   -4.7749   -0.7082   -1.2800 H   0  0  0  0  0  0  0  0  0  0  0  0
  1  2  1  0
  3  1  1  0
  3  4  1  0
  3  5  2  0
  4  6  2  0
  7  4  1  0
  6  8  1  0
  9  7  2  0
  7 10  1  0
  8 11  1  0
  8 12  2  0
 12  9  1  0
  9 13  1  0
  2 14  2  0
 15  2  1  0
 14 16  1  0
 17 15  2  0
 15 18  1  0
 16 19  1  0
 16 20  2  0
 20 17  1  0
 17 21  1  0
  1 22  1  0
  6 23  1  0
 10 24  1  0
 12 25  1  0
 14 26  1  0
 18 27  1  0
 20 28  1  0
M  END
$$$$

     RDKit          3D

 27 28  0  0  0  0  0  0  0  0999 V2000
    0.5099    0.7068   -1.1202 N   0  0  0  0  0  0  0  0  0  0  0  0
    1.6409    0.0585   -0.6881 C   0  0  0  0  0  0  0  0  0  0  0  0
   -0.3334    1.3128   -0.2158 C   0  0  0  0  0  0  0  0  0  0  0  0
   -1.4716    0.4511    0.1860 C   0  0  0  0  0  0  0  0  0  0  0  0
   -0.1825    2.4545    0.2018 O   0  0  0  0  0  0  0  0  0  0  0  0
   -1.4087   -0.0725    1.4269 C   0  0  0  0  0  0  0  0  0  0  0  0
   -2.7512    0.5330   -0.5031 C   0  0  0  0  0  0  0  0  0  0  0  0
   -2.6359   -0.3196    2.1685 C   0  0  0  0  0  0  0  0  0  0  0  0
   -3.8923    0.2489    0.1616 C   0  0  0  0  0  0  0  0  0  0  0  0
   -2.6948    0.8846   -1.8341 O   0  0  0  0  0  0  0  0  0  0  0  0
   -2.4888   -0.8683    3.9431 Br  0  0  0  0  0  0  0  0  0  0  0  0
   -3.8269   -0.1621    1.5592 C   0  0  0  0  0  0  0  0  0  0  0  0
   -5.5775    0.3277   -0.6384 Br  0  0  0  0  0  0  0  0  0  0  0  0
    1.7797   -1.2691   -0.8585 C   0  0  0  0  0  0  0  0  0  0  0  0
    2.7870    0.8552   -0.2748 C   0  0  0  0  0  0  0  0  0  0  0  0
    3.0918   -1.8863   -0.7411 C   0  0  0  0  0  0  0  0  0  0  0  0
    3.9956    0.2786   -0.1368 C   0  0  0  0  0  0  0  0  0  0  0  0
    4.1618   -1.1454   -0.3946 C   0  0  0  0  0  0  0  0  0  0  0  0
    5.8672   -1.8753   -0.2205 Br  0  0  0  0  0  0  0  0  0  0  0  0
    0.6507    1.2872   -1.9401 H   0  0  0  0  0  0  0  0  0  0  0  0
   -0.4543   -0.2979    1.8935 H   0  0  0  0  0  0  0  0  0  0  0  0
   -3.6125    0.9256   -2.1625 H   0  0  0  0  0  0  0  0  0  0  0  0
   -4.7554   -0.3441    2.0913 H   0  0  0  0  0  0  0  0  0  0  0  0
    0.9309   -1.9085   -1.0773 H   0  0  0  0  0  0  0  0  0  0  0  0
    2.6456    1.9118   -0.0669 H   0  0  0  0  0  0  0  0  0  0  0  0
    3.1711   -2.9504   -0.9370 H   0  0  0  0  0  0  0  0  0  0  0  0
    4.8537    0.8633    0.1779 H   0  0  0  0  0  0  0  0  0  0  0  0
  1  2  1  0
  3  1  1  0
  3  4  1  0
  3  5  2  0
  4  6  2  0
  7  4  1  0
  6  8  1  0
  9  7  2  0
  7 10  1  0
  8 11  1  0
  8 12  2  0
 12  9  1  0
  9 13  1  0
  2 14  2  0
 15  2  1  0
 14 16  1  0
 17 15  2  0
 16 18  2  0
 18 17  1  0
 18 19  1  0
  1 20  1  0
  6 21  1  0
 10 22  1  0
 12 23  1  0
 14 24  1  0
 15 25  1  0
 16 26  1  0
 17 27  1  0
M  END
$$$$

     RDKit          3D

 28 29  0  0  0  0  0  0  0  0999 V2000
   -0.0394    1.1696   -1.2053 N   0  0  0  0  0  0  0  0  0  0  0  0
   -1.1482    1.1332   -0.3823 C   0  0  0  0  0  0  0  0  0  0  0  0
    0.3472    0.0413   -1.8953 C   0  0  0  0  0  0  0  0  0  0  0  0
    1.1729   -0.9218   -1.1266 C   0  0  0  0  0  0  0  0  0  0  0  0
    0.1425   -0.1154   -3.0937 O   0  0  0  0  0  0  0  0  0  0  0  0
    0.5376   -1.7298   -0.2562 C   0  0  0  0  0  0  0  0  0  0  0  0
    2.6073   -0.7078   -0.9855 C   0  0  0  0  0  0  0  0  0  0  0  0
    1.1279   -1.9419    1.0566 C   0  0  0  0  0  0  0  0  0  0  0  0
    3.2067   -1.0071    0.1876 C   0  0  0  0  0  0  0  0  0  0  0  0
    3.2878   -0.2308   -2.0859 O   0  0  0  0  0  0  0  0  0  0  0  0
    0.0672   -2.7163    2.3757 Br  0  0  0  0  0  0  0  0  0  0  0  0
    2.4110   -1.5879    1.2680 C   0  0  0  0  0  0  0  0  0  0  0  0
    5.0293   -0.7619    0.5082 Br  0  0  0  0  0  0  0  0  0  0  0  0
   -2.3961    0.9419   -0.8534 C   0  0  0  0  0  0  0  0  0  0  0  0
   -0.9421    1.3041    1.0546 C   0  0  0  0  0  0  0  0  0  0  0  0
   -3.5007    0.7541    0.0748 C   0  0  0  0  0  0  0  0  0  0  0  0
   -1.9692    1.1675    1.9087 C   0  0  0  0  0  0  0  0  0  0  0  0
    0.3290    1.5999    1.4905 O   0  0  0  0  0  0  0  0  0  0  0  0
   -3.2953    0.8617    1.4000 C   0  0  0  0  0  0  0  0  0  0  0  0
   -0.0509    1.9732   -1.8282 H   0  0  0  0  0  0  0  0  0  0  0  0
   -0.3962   -2.2196   -0.5127 H   0  0  0  0  0  0  0  0  0  0  0  0
    2.7239   -0.3267   -2.8773 H   0  0  0  0  0  0  0  0  0  0  0  0
    2.8808   -1.7364    2.2353 H   0  0  0  0  0  0  0  0  0  0  0  0
   -2.6104    0.8847   -1.9159 H   0  0  0  0  0  0  0  0  0  0  0  0
   -4.4827    0.5287   -0.3282 H   0  0  0  0  0  0  0  0  0  0  0  0
   -1.8303    1.2850    2.9774 H   0  0  0  0  0  0  0  0  0  0  0  0
    0.8927    1.6307    0.6966 H   0  0  0  0  0  0  0  0  0  0  0  0
   -4.1025    0.7278    2.1125 H   0  0  0  0  0  0  0  0  0  0  0  0
  1  2  1  0
  3  1  1  0
  3  4  1  0
  3  5  2  0
  4  6  2  0
  7  4  1  0
  6  8  1  0
  9  7  2  0
  7 10  1  0
  8 11  1  0
  8 12  2  0
 12  9  1  0
  9 13  1  0
  2 14  2  0
 15  2  1  0
 14 16  1  0
 17 15  2  0
 15 18  1  0
 16 19  2  0
 19 17  1  0
  1 20  1  0
  6 21  1  0
 10 22  1  0
 12 23  1  0
 14 24  1  0
 16 25  1  0
 17 26  1  0
 18 27  1  0
 19 28  1  0
M  END
$$$$

     RDKit          3D

 31 32  0  0  0  0  0  0  0  0999 V2000
    0.2080   -0.4851    1.6910 N   0  0  0  0  0  0  0  0  0  0  0  0
   -0.9599   -0.5491    0.9635 C   0  0  0  0  0  0  0  0  0  0  0  0
    0.8929    0.7003    1.8266 C   0  0  0  0  0  0  0  0  0  0  0  0
    1.8939    0.9810    0.7661 C   0  0  0  0  0  0  0  0  0  0  0  0
    0.8066    1.4484    2.7960 O   0  0  0  0  0  0  0  0  0  0  0  0
    1.4619    1.2398   -0.4826 C   0  0  0  0  0  0  0  0  0  0  0  0
    3.3006    0.6692    0.9865 C   0  0  0  0  0  0  0  0  0  0  0  0
    2.2209    0.7126   -1.6053 C   0  0  0  0  0  0  0  0  0  0  0  0
    4.0655    0.2985   -0.0635 C   0  0  0  0  0  0  0  0  0  0  0  0
    3.7883    0.8053    2.2700 O   0  0  0  0  0  0  0  0  0  0  0  0
    1.4114    0.7095   -3.2819 Br  0  0  0  0  0  0  0  0  0  0  0  0
    3.4735    0.2595   -1.4002 C   0  0  0  0  0  0  0  0  0  0  0  0
    5.8744   -0.1413    0.0789 Br  0  0  0  0  0  0  0  0  0  0  0  0
   -2.0773    0.1024    1.3326 C   0  0  0  0  0  0  0  0  0  0  0  0
   -0.9528   -1.3073   -0.2836 C   0  0  0  0  0  0  0  0  0  0  0  0
   -3.1628    0.2696    0.3799 C   0  0  0  0  0  0  0  0  0  0  0  0
   -1.9844   -1.2082   -1.1425 C   0  0  0  0  0  0  0  0  0  0  0  0
    0.1568   -2.0941   -0.4968 O   0  0  0  0  0  0  0  0  0  0  0  0
   -3.1279   -0.3564   -0.8149 C   0  0  0  0  0  0  0  0  0  0  0  0
   -4.2133   -0.2330   -1.8392 C   0  0  0  0  0  0  0  0  0  0  0  0
    0.8036   -1.2946    1.5351 H   0  0  0  0  0  0  0  0  0  0  0  0
    0.5731    1.8360   -0.6625 H   0  0  0  0  0  0  0  0  0  0  0  0
    3.1138    1.2464    2.8252 H   0  0  0  0  0  0  0  0  0  0  0  0
    4.0699   -0.1327   -2.2178 H   0  0  0  0  0  0  0  0  0  0  0  0
   -2.1891    0.5227    2.3269 H   0  0  0  0  0  0  0  0  0  0  0  0
   -3.9930    0.9056    0.6714 H   0  0  0  0  0  0  0  0  0  0  0  0
   -2.0048   -1.7546   -2.0786 H   0  0  0  0  0  0  0  0  0  0  0  0
    0.0393   -2.5451   -1.3509 H   0  0  0  0  0  0  0  0  0  0  0  0
   -5.0209    0.4239   -1.4987 H   0  0  0  0  0  0  0  0  0  0  0  0
   -3.8167    0.1842   -2.7710 H   0  0  0  0  0  0  0  0  0  0  0  0
   -4.6514   -1.2131   -2.0559 H   0  0  0  0  0  0  0  0  0  0  0  0
  1  2  1  0
  3  1  1  0
  3  4  1  0
  3  5  2  0
  4  6  2  0
  7  4  1  0
  6  8  1  0
  9  7  2  0
  7 10  1  0
  8 11  1  0
  8 12  2  0
 12  9  1  0
  9 13  1  0
  2 14  2  0
 15  2  1  0
 14 16  1  0
 17 15  2  0
 15 18  1  0
 16 19  2  0
 19 17  1  0
 19 20  1  0
  1 21  1  0
  6 22  1  0
 10 23  1  0
 12 24  1  0
 14 25  1  0
 16 26  1  0
 17 27  1  0
 18 28  1  0
 20 29  1  0
 20 30  1  0
 20 31  1  0
M  END
$$$$

     RDKit          3D

 27 28  0  0  0  0  0  0  0  0999 V2000
    0.2811    1.5066    0.5166 N   0  0  0  0  0  0  0  0  0  0  0  0
    1.5130    0.9174    0.6759 C   0  0  0  0  0  0  0  0  0  0  0  0
   -0.4130    1.3638   -0.6654 C   0  0  0  0  0  0  0  0  0  0  0  0
   -1.3054    0.1746   -0.6820 C   0  0  0  0  0  0  0  0  0  0  0  0
   -0.3310    2.1348   -1.6142 O   0  0  0  0  0  0  0  0  0  0  0  0
   -1.1022   -0.7223   -1.6674 C   0  0  0  0  0  0  0  0  0  0  0  0
   -2.5366    0.1374    0.0939 C   0  0  0  0  0  0  0  0  0  0  0  0
   -2.2038   -1.5603   -2.1164 C   0  0  0  0  0  0  0  0  0  0  0  0
   -3.5440   -0.6793   -0.2837 C   0  0  0  0  0  0  0  0  0  0  0  0
   -2.5649    0.9416    1.2141 O   0  0  0  0  0  0  0  0  0  0  0  0
   -1.9226   -2.6535   -3.5990 Br  0  0  0  0  0  0  0  0  0  0  0  0
   -3.3760   -1.5343   -1.4529 C   0  0  0  0  0  0  0  0  0  0  0  0
   -5.1554   -0.7987    0.6513 Br  0  0  0  0  0  0  0  0  0  0  0  0
    2.6379    1.5086    0.2294 C   0  0  0  0  0  0  0  0  0  0  0  0
    1.6136   -0.3132    1.4485 C   0  0  0  0  0  0  0  0  0  0  0  0
    3.9346    0.9021    0.4913 C   0  0  0  0  0  0  0  0  0  0  0  0
    2.8085   -0.8729    1.6984 C   0  0  0  0  0  0  0  0  0  0  0  0
    0.4834   -0.8812    1.9181 F   0  0  0  0  0  0  0  0  0  0  0  0
    4.0172   -0.2420    1.1948 C   0  0  0  0  0  0  0  0  0  0  0  0
   -0.3217    1.4843    1.3358 H   0  0  0  0  0  0  0  0  0  0  0  0
   -0.1412   -0.7971   -2.1680 H   0  0  0  0  0  0  0  0  0  0  0  0
   -3.4457    0.8329    1.6221 H   0  0  0  0  0  0  0  0  0  0  0  0
   -4.2101   -2.1533   -1.7682 H   0  0  0  0  0  0  0  0  0  0  0  0
    2.6026    2.4095   -0.3759 H   0  0  0  0  0  0  0  0  0  0  0  0
    4.8198    1.3939    0.1011 H   0  0  0  0  0  0  0  0  0  0  0  0
    2.8892   -1.7866    2.2744 H   0  0  0  0  0  0  0  0  0  0  0  0
    4.9728   -0.7129    1.4002 H   0  0  0  0  0  0  0  0  0  0  0  0
  1  2  1  0
  3  1  1  0
  3  4  1  0
  3  5  2  0
  4  6  2  0
  7  4  1  0
  6  8  1  0
  9  7  2  0
  7 10  1  0
  8 11  1  0
  8 12  2  0
 12  9  1  0
  9 13  1  0
  2 14  2  0
 15  2  1  0
 14 16  1  0
 17 15  2  0
 15 18  1  0
 16 19  2  0
 19 17  1  0
  1 20  1  0
  6 21  1  0
 10 22  1  0
 12 23  1  0
 14 24  1  0
 16 25  1  0
 17 26  1  0
 19 27  1  0
M  END
$$$$

     RDKit          3D

 27 28  0  0  0  0  0  0  0  0999 V2000
    0.3511    1.3167    0.1386 N   0  0  0  0  0  0  0  0  0  0  0  0
    1.6018    0.7597    0.0311 C   0  0  0  0  0  0  0  0  0  0  0  0
   -0.6100    1.0538   -0.8120 C   0  0  0  0  0  0  0  0  0  0  0  0
   -1.5419   -0.0269   -0.4102 C   0  0  0  0  0  0  0  0  0  0  0  0
   -0.7091    1.6576   -1.8733 O   0  0  0  0  0  0  0  0  0  0  0  0
   -1.3841   -1.2159   -1.0259 C   0  0  0  0  0  0  0  0  0  0  0  0
   -2.7700    0.2643    0.3149 C   0  0  0  0  0  0  0  0  0  0  0  0
   -2.5036   -2.1419   -1.1078 C   0  0  0  0  0  0  0  0  0  0  0  0
   -3.7997   -0.6088    0.2709 C   0  0  0  0  0  0  0  0  0  0  0  0
   -2.7806    1.4394    1.0347 O   0  0  0  0  0  0  0  0  0  0  0  0
   -2.2661   -3.7170   -2.0752 Br  0  0  0  0  0  0  0  0  0  0  0  0
   -3.6623   -1.8465   -0.4876 C   0  0  0  0  0  0  0  0  0  0  0  0
   -5.4107   -0.3214    1.1705 Br  0  0  0  0  0  0  0  0  0  0  0  0
    2.0323   -0.1412    0.9357 C   0  0  0  0  0  0  0  0  0  0  0  0
    2.5480    1.3545   -0.9067 C   0  0  0  0  0  0  0  0  0  0  0  0
    3.4521   -0.4383    1.0483 C   0  0  0  0  0  0  0  0  0  0  0  0
    3.8585    1.0605   -0.8167 C   0  0  0  0  0  0  0  0  0  0  0  0
    4.3189    0.1446    0.2052 C   0  0  0  0  0  0  0  0  0  0  0  0
    5.6377   -0.1173    0.2835 F   0  0  0  0  0  0  0  0  0  0  0  0
    0.3532    2.2967    0.4007 H   0  0  0  0  0  0  0  0  0  0  0  0
   -0.4475   -1.4768   -1.5095 H   0  0  0  0  0  0  0  0  0  0  0  0
   -3.6608    1.5188    1.4474 H   0  0  0  0  0  0  0  0  0  0  0  0
   -4.5095   -2.5235   -0.5353 H   0  0  0  0  0  0  0  0  0  0  0  0
    1.3463   -0.6625    1.5948 H   0  0  0  0  0  0  0  0  0  0  0  0
    2.1753    2.0216   -1.6784 H   0  0  0  0  0  0  0  0  0  0  0  0
    3.7907   -1.1294    1.8105 H   0  0  0  0  0  0  0  0  0  0  0  0
    4.5901    1.4793   -1.4975 H   0  0  0  0  0  0  0  0  0  0  0  0
  1  2  1  0
  3  1  1  0
  3  4  1  0
  3  5  2  0
  4  6  2  0
  7  4  1  0
  6  8  1  0
  9  7  2  0
  7 10  1  0
  8 11  1  0
  8 12  2  0
 12  9  1  0
  9 13  1  0
  2 14  2  0
 15  2  1  0
 14 16  1  0
 17 15  2  0
 16 18  2  0
 18 17  1  0
 18 19  1  0
  1 20  1  0
  6 21  1  0
 10 22  1  0
 12 23  1  0
 14 24  1  0
 15 25  1  0
 16 26  1  0
 17 27  1  0
M  END
$$$$

     RDKit          3D

 27 28  0  0  0  0  0  0  0  0999 V2000
   -0.3305   -1.0475   -0.8867 N   0  0  0  0  0  0  0  0  0  0  0  0
   -1.5712   -0.4915   -0.6862 C   0  0  0  0  0  0  0  0  0  0  0  0
    0.5101   -1.2693    0.1809 C   0  0  0  0  0  0  0  0  0  0  0  0
    1.4802   -0.1688    0.3959 C   0  0  0  0  0  0  0  0  0  0  0  0
    0.4870   -2.2809    0.8716 O   0  0  0  0  0  0  0  0  0  0  0  0
    1.2415    0.6433    1.4457 C   0  0  0  0  0  0  0  0  0  0  0  0
    2.7974   -0.1912   -0.2229 C   0  0  0  0  0  0  0  0  0  0  0  0
    2.3454    1.3433    2.0843 C   0  0  0  0  0  0  0  0  0  0  0  0
    3.8162    0.4952    0.3393 C   0  0  0  0  0  0  0  0  0  0  0  0
    2.9034   -0.9170   -1.3892 O   0  0  0  0  0  0  0  0  0  0  0  0
    1.9804    2.3422    3.6146 Br  0  0  0  0  0  0  0  0  0  0  0  0
    3.5807    1.2677    1.5526 C   0  0  0  0  0  0  0  0  0  0  0  0
    5.5392    0.5215   -0.3817 Br  0  0  0  0  0  0  0  0  0  0  0  0
   -1.8730    0.7148   -1.2024 C   0  0  0  0  0  0  0  0  0  0  0  0
   -2.6394   -1.3448   -0.1827 C   0  0  0  0  0  0  0  0  0  0  0  0
   -3.2612    1.0848   -1.4237 C   0  0  0  0  0  0  0  0  0  0  0  0
   -3.9244   -0.9784   -0.3394 C   0  0  0  0  0  0  0  0  0  0  0  0
   -4.2471    0.2723   -1.0047 C   0  0  0  0  0  0  0  0  0  0  0  0
   -0.3334   -1.8373   -1.5227 H   0  0  0  0  0  0  0  0  0  0  0  0
    0.2371    0.7701    1.8394 H   0  0  0  0  0  0  0  0  0  0  0  0
    3.8284   -0.8470   -1.6889 H   0  0  0  0  0  0  0  0  0  0  0  0
    4.4185    1.7853    2.0094 H   0  0  0  0  0  0  0  0  0  0  0  0
   -1.1046    1.4465   -1.4290 H   0  0  0  0  0  0  0  0  0  0  0  0
   -2.3786   -2.2672    0.3277 H   0  0  0  0  0  0  0  0  0  0  0  0
   -3.4736    2.0235   -1.9230 H   0  0  0  0  0  0  0  0  0  0  0  0
   -4.7365   -1.5940    0.0321 H   0  0  0  0  0  0  0  0  0  0  0  0
   -5.2919    0.5244   -1.1529 H   0  0  0  0  0  0  0  0  0  0  0  0
  1  2  1  0
  3  1  1  0
  3  4  1  0
  3  5  2  0
  4  6  2  0
  7  4  1  0
  6  8  1  0
  9  7  2  0
  7 10  1  0
  8 11  1  0
  8 12  2  0
 12  9  1  0
  9 13  1  0
  2 14  2  0
 15  2  1  0
 14 16  1  0
 17 15  2  0
 16 18  2  0
 18 17  1  0
  1 19  1  0
  6 20  1  0
 10 21  1  0
 12 22  1  0
 14 23  1  0
 15 24  1  0
 16 25  1  0
 17 26  1  0
 18 27  1  0
M  END
$$$$

     RDKit          3D

 27 28  0  0  0  0  0  0  0  0999 V2000
   -0.5571   -1.0451    0.8675 N   0  0  0  0  0  0  0  0  0  0  0  0
   -1.6718   -0.9276    0.0674 C   0  0  0  0  0  0  0  0  0  0  0  0
    0.1088    0.0897    1.2794 C   0  0  0  0  0  0  0  0  0  0  0  0
    1.3736    0.3157    0.5383 C   0  0  0  0  0  0  0  0  0  0  0  0
   -0.2741    0.8318    2.1747 O   0  0  0  0  0  0  0  0  0  0  0  0
    1.3832    1.3509   -0.3259 C   0  0  0  0  0  0  0  0  0  0  0  0
    2.6274   -0.2731    0.9867 C   0  0  0  0  0  0  0  0  0  0  0  0
    2.6438    1.9821   -0.6859 C   0  0  0  0  0  0  0  0  0  0  0  0
    3.8017    0.2901    0.6280 C   0  0  0  0  0  0  0  0  0  0  0  0
    2.5169   -1.4138    1.7520 O   0  0  0  0  0  0  0  0  0  0  0  0
    2.5860    3.4799   -1.7931 Br  0  0  0  0  0  0  0  0  0  0  0  0
    3.8021    1.4738   -0.2229 C   0  0  0  0  0  0  0  0  0  0  0  0
    5.4569   -0.3975    1.1507 Br  0  0  0  0  0  0  0  0  0  0  0  0
   -1.5775   -0.9084   -1.2771 C   0  0  0  0  0  0  0  0  0  0  0  0
   -2.9839   -0.7989    0.6916 C   0  0  0  0  0  0  0  0  0  0  0  0
   -2.7341   -0.5243   -2.0743 C   0  0  0  0  0  0  0  0  0  0  0  0
   -4.0671   -0.5038   -0.0447 C   0  0  0  0  0  0  0  0  0  0  0  0
   -3.0956   -1.0068    2.0194 F   0  0  0  0  0  0  0  0  0  0  0  0
   -3.9208   -0.3338   -1.4739 C   0  0  0  0  0  0  0  0  0  0  0  0
   -5.0086    0.0043   -2.1926 F   0  0  0  0  0  0  0  0  0  0  0  0
   -0.6936   -1.6726    1.6549 H   0  0  0  0  0  0  0  0  0  0  0  0
    0.4574    1.7717   -0.7073 H   0  0  0  0  0  0  0  0  0  0  0  0
    3.4199   -1.6815    2.0065 H   0  0  0  0  0  0  0  0  0  0  0  0
    4.7538    1.9292   -0.4786 H   0  0  0  0  0  0  0  0  0  0  0  0
   -0.6739   -1.2147   -1.7935 H   0  0  0  0  0  0  0  0  0  0  0  0
   -2.6249   -0.4109   -3.1465 H   0  0  0  0  0  0  0  0  0  0  0  0
   -5.0487   -0.4061    0.3992 H   0  0  0  0  0  0  0  0  0  0  0  0
  1  2  1  0
  3  1  1  0
  3  4  1  0
  3  5  2  0
  4  6  2  0
  7  4  1  0
  6  8  1  0
  9  7  2  0
  7 10  1  0
  8 11  1  0
  8 12  2  0
 12  9  1  0
  9 13  1  0
  2 14  2  0
 15  2  1  0
 14 16  1  0
 17 15  2  0
 15 18  1  0
 16 19  2  0
 19 17  1  0
 19 20  1  0
  1 21  1  0
  6 22  1  0
 10 23  1  0
 12 24  1  0
 14 25  1  0
 16 26  1  0
 17 27  1  0
M  END
$$$$

     RDKit          3D

 38 40  0  0  0  0  0  0  0  0999 V2000
    2.1770   -0.0281   -0.2946 C   0  0  0  0  0  0  0  0  0  0  0  0
    3.5931   -0.3894   -0.1968 C   0  0  0  0  0  0  0  0  0  0  0  0
    1.2314   -0.9613   -0.0394 C   0  0  0  0  0  0  0  0  0  0  0  0
    1.7321    1.3368   -0.5983 C   0  0  0  0  0  0  0  0  0  0  0  0
   -0.1832   -0.6289   -0.0906 C   0  0  0  0  0  0  0  0  0  0  0  0
    0.4235    1.6399   -0.6656 C   0  0  0  0  0  0  0  0  0  0  0  0
   -0.5775    0.6066   -0.4494 C   0  0  0  0  0  0  0  0  0  0  0  0
   -1.8541    0.8264   -0.9131 N   0  0  0  0  0  0  0  0  0  0  0  0
   -2.7060    1.6567   -0.2236 C   0  0  0  0  0  0  0  0  0  0  0  0
   -3.7710    0.9675    0.5465 C   0  0  0  0  0  0  0  0  0  0  0  0
   -2.7104    2.8797   -0.3284 O   0  0  0  0  0  0  0  0  0  0  0  0
   -3.4314    0.0530    1.4752 C   0  0  0  0  0  0  0  0  0  0  0  0
   -5.1580    1.0488    0.0972 C   0  0  0  0  0  0  0  0  0  0  0  0
   -4.2719   -1.1217    1.6429 C   0  0  0  0  0  0  0  0  0  0  0  0
   -5.9951    0.0180    0.3481 C   0  0  0  0  0  0  0  0  0  0  0  0
   -5.5553    2.2056   -0.5423 O   0  0  0  0  0  0  0  0  0  0  0  0
   -3.5948   -2.5394    2.6426 Br  0  0  0  0  0  0  0  0  0  0  0  0
   -5.5049   -1.1359    1.0988 C   0  0  0  0  0  0  0  0  0  0  0  0
   -7.7855   -0.0115   -0.1837 Br  0  0  0  0  0  0  0  0  0  0  0  0
    4.2122   -0.8591   -1.3060 C   0  0  0  0  0  0  0  0  0  0  0  0
    4.3866   -0.3141    1.0421 C   0  0  0  0  0  0  0  0  0  0  0  0
    5.5319   -1.4812   -1.2380 C   0  0  0  0  0  0  0  0  0  0  0  0
    5.6237   -0.8324    1.0982 C   0  0  0  0  0  0  0  0  0  0  0  0
    3.8391    0.3022    2.1465 O   0  0  0  0  0  0  0  0  0  0  0  0
    6.3510   -2.3517   -2.9211 I   0  0  0  0  0  0  0  0  0  0  0  0
    6.2053   -1.4629   -0.0719 C   0  0  0  0  0  0  0  0  0  0  0  0
    1.4932   -1.9888    0.2002 H   0  0  0  0  0  0  0  0  0  0  0  0
    2.4890    2.1004   -0.7567 H   0  0  0  0  0  0  0  0  0  0  0  0
   -0.8943   -1.4126    0.1460 H   0  0  0  0  0  0  0  0  0  0  0  0
    0.0964    2.6549   -0.8726 H   0  0  0  0  0  0  0  0  0  0  0  0
   -1.8863    1.0082   -1.9110 H   0  0  0  0  0  0  0  0  0  0  0  0
   -2.5930    0.2088    2.1459 H   0  0  0  0  0  0  0  0  0  0  0  0
   -4.8326    2.8652   -0.4963 H   0  0  0  0  0  0  0  0  0  0  0  0
   -6.1620   -1.9920    1.2158 H   0  0  0  0  0  0  0  0  0  0  0  0
    3.7399   -0.7820   -2.2817 H   0  0  0  0  0  0  0  0  0  0  0  0
    6.2112   -0.7776    2.0080 H   0  0  0  0  0  0  0  0  0  0  0  0
    2.9386    0.5934    1.9253 H   0  0  0  0  0  0  0  0  0  0  0  0
    7.1921   -1.9017    0.0365 H   0  0  0  0  0  0  0  0  0  0  0  0
  1  2  1  0
  3  1  2  0
  1  4  1  0
  5  3  1  0
  4  6  2  0
  7  5  2  0
  6  7  1  0
  8  7  1  0
  9  8  1  0
  9 10  1  0
  9 11  2  0
 10 12  2  0
 13 10  1  0
 12 14  1  0
 15 13  2  0
 13 16  1  0
 14 17  1  0
 14 18  2  0
 18 15  1  0
 15 19  1  0
  2 20  2  0
 21  2  1  0
 20 22  1  0
 23 21  2  0
 21 24  1  0
 22 25  1  0
 22 26  2  0
 26 23  1  0
  3 27  1  0
  4 28  1  0
  5 29  1  0
  6 30  1  0
  8 31  1  0
 12 32  1  0
 16 33  1  0
 18 34  1  0
 20 35  1  0
 23 36  1  0
 24 37  1  0
 26 38  1  0
M  END
$$$$

     RDKit          3D

 37 39  0  0  0  0  0  0  0  0999 V2000
   -2.1712   -0.2487    0.6336 C   0  0  0  0  0  0  0  0  0  0  0  0
   -3.4430   -0.2132    1.3601 C   0  0  0  0  0  0  0  0  0  0  0  0
   -1.0546   -0.6890    1.2568 C   0  0  0  0  0  0  0  0  0  0  0  0
   -2.0365    0.2147   -0.7513 C   0  0  0  0  0  0  0  0  0  0  0  0
    0.2618   -0.4381    0.6892 C   0  0  0  0  0  0  0  0  0  0  0  0
   -0.8223    0.4169   -1.2931 C   0  0  0  0  0  0  0  0  0  0  0  0
    0.3757    0.1750   -0.5033 C   0  0  0  0  0  0  0  0  0  0  0  0
    1.5121    0.8883   -0.8109 N   0  0  0  0  0  0  0  0  0  0  0  0
    2.2602    0.5621   -1.9171 C   0  0  0  0  0  0  0  0  0  0  0  0
    3.4781   -0.2363   -1.6389 C   0  0  0  0  0  0  0  0  0  0  0  0
    2.0509    1.0005   -3.0443 O   0  0  0  0  0  0  0  0  0  0  0  0
    3.3536   -1.4481   -1.0633 C   0  0  0  0  0  0  0  0  0  0  0  0
    4.7930    0.3927   -1.7060 C   0  0  0  0  0  0  0  0  0  0  0  0
    4.3691   -1.8831   -0.1170 C   0  0  0  0  0  0  0  0  0  0  0  0
    5.7901   -0.0709   -0.9211 C   0  0  0  0  0  0  0  0  0  0  0  0
    4.9609    1.4217   -2.6107 O   0  0  0  0  0  0  0  0  0  0  0  0
    3.9976   -3.3737    0.9348 Br  0  0  0  0  0  0  0  0  0  0  0  0
    5.5401   -1.2190   -0.0512 C   0  0  0  0  0  0  0  0  0  0  0  0
    7.5129    0.6497   -0.9045 Br  0  0  0  0  0  0  0  0  0  0  0  0
   -3.7456    0.9081    2.0556 C   0  0  0  0  0  0  0  0  0  0  0  0
   -4.5308   -1.1969    1.1763 C   0  0  0  0  0  0  0  0  0  0  0  0
   -5.1210    1.3646    2.1465 C   0  0  0  0  0  0  0  0  0  0  0  0
   -5.8105   -0.8226    1.3794 C   0  0  0  0  0  0  0  0  0  0  0  0
   -4.1033   -2.9513    0.6919 Br  0  0  0  0  0  0  0  0  0  0  0  0
   -6.1195    0.5289    1.8128 C   0  0  0  0  0  0  0  0  0  0  0  0
   -1.1088   -1.3459    2.1215 H   0  0  0  0  0  0  0  0  0  0  0  0
   -2.9411    0.3758   -1.3283 H   0  0  0  0  0  0  0  0  0  0  0  0
    1.1207   -0.8697    1.1923 H   0  0  0  0  0  0  0  0  0  0  0  0
   -0.7188    0.7374   -2.3246 H   0  0  0  0  0  0  0  0  0  0  0  0
    1.3855    1.8923   -0.7256 H   0  0  0  0  0  0  0  0  0  0  0  0
    2.5606   -2.1313   -1.3506 H   0  0  0  0  0  0  0  0  0  0  0  0
    4.1686    1.4795   -3.1822 H   0  0  0  0  0  0  0  0  0  0  0  0
    6.3230   -1.5279    0.6351 H   0  0  0  0  0  0  0  0  0  0  0  0
   -2.9781    1.5037    2.5399 H   0  0  0  0  0  0  0  0  0  0  0  0
   -5.3129    2.3745    2.4919 H   0  0  0  0  0  0  0  0  0  0  0  0
   -6.6370   -1.5150    1.2516 H   0  0  0  0  0  0  0  0  0  0  0  0
   -7.1595    0.8310    1.8749 H   0  0  0  0  0  0  0  0  0  0  0  0
  1  2  1  0
  3  1  2  0
  1  4  1  0
  5  3  1  0
  4  6  2  0
  7  5  2  0
  6  7  1  0
  8  7  1  0
  9  8  1  0
  9 10  1  0
  9 11  2  0
 10 12  2  0
 13 10  1  0
 12 14  1  0
 15 13  2  0
 13 16  1  0
 14 17  1  0
 14 18  2  0
 18 15  1  0
 15 19  1  0
  2 20  2  0
 21  2  1  0
 20 22  1  0
 23 21  2  0
 21 24  1  0
 22 25  2  0
 25 23  1  0
  3 26  1  0
  4 27  1  0
  5 28  1  0
  6 29  1  0
  8 30  1  0
 12 31  1  0
 16 32  1  0
 18 33  1  0
 20 34  1  0
 22 35  1  0
 23 36  1  0
 25 37  1  0
M  END
$$$$

     RDKit          3D

 40 42  0  0  0  0  0  0  0  0999 V2000
   -1.3571    0.2349   -0.2366 C   0  0  0  0  0  0  0  0  0  0  0  0
   -2.7910    0.2567   -0.5097 C   0  0  0  0  0  0  0  0  0  0  0  0
   -0.8495    1.0212    0.7407 C   0  0  0  0  0  0  0  0  0  0  0  0
   -0.4243   -0.6551   -0.9334 C   0  0  0  0  0  0  0  0  0  0  0  0
    0.4487    0.7230    1.3278 C   0  0  0  0  0  0  0  0  0  0  0  0
    0.7920   -0.9096   -0.4153 C   0  0  0  0  0  0  0  0  0  0  0  0
    1.1822   -0.2990    0.8456 C   0  0  0  0  0  0  0  0  0  0  0  0
    1.9960   -1.0487    1.6666 N   0  0  0  0  0  0  0  0  0  0  0  0
    3.1979   -0.5389    2.0922 C   0  0  0  0  0  0  0  0  0  0  0  0
    4.3028   -0.5449    1.0997 C   0  0  0  0  0  0  0  0  0  0  0  0
    3.3770   -0.0698    3.2134 O   0  0  0  0  0  0  0  0  0  0  0  0
    4.5417   -1.6558    0.3759 C   0  0  0  0  0  0  0  0  0  0  0  0
    4.9521    0.7109    0.7291 C   0  0  0  0  0  0  0  0  0  0  0  0
    5.0719   -1.5212   -0.9722 C   0  0  0  0  0  0  0  0  0  0  0  0
    5.5400    0.8217   -0.4821 C   0  0  0  0  0  0  0  0  0  0  0  0
    4.9594    1.7283    1.6636 O   0  0  0  0  0  0  0  0  0  0  0  0
    5.0845   -3.0325   -2.0614 Br  0  0  0  0  0  0  0  0  0  0  0  0
    5.5495   -0.3300   -1.3819 C   0  0  0  0  0  0  0  0  0  0  0  0
    6.3929    2.3722   -1.0797 Br  0  0  0  0  0  0  0  0  0  0  0  0
   -3.6097   -0.5864    0.1576 C   0  0  0  0  0  0  0  0  0  0  0  0
   -3.3939    1.1570   -1.4972 C   0  0  0  0  0  0  0  0  0  0  0  0
   -5.0542   -0.4996    0.0165 C   0  0  0  0  0  0  0  0  0  0  0  0
   -4.7274    1.2081   -1.6642 C   0  0  0  0  0  0  0  0  0  0  0  0
   -5.6041    0.3598   -0.8639 C   0  0  0  0  0  0  0  0  0  0  0  0
   -7.0808    0.4989   -1.0689 C   0  0  0  0  0  0  0  0  0  0  0  0
   -1.3407    1.9415    1.0405 H   0  0  0  0  0  0  0  0  0  0  0  0
   -0.7428   -1.0958   -1.8733 H   0  0  0  0  0  0  0  0  0  0  0  0
    0.8738    1.4509    2.0136 H   0  0  0  0  0  0  0  0  0  0  0  0
    1.4977   -1.5512   -0.9307 H   0  0  0  0  0  0  0  0  0  0  0  0
    1.4858   -1.4613    2.4419 H   0  0  0  0  0  0  0  0  0  0  0  0
    4.3913   -2.6476    0.7939 H   0  0  0  0  0  0  0  0  0  0  0  0
    4.5665    1.4006    2.4998 H   0  0  0  0  0  0  0  0  0  0  0  0
    5.9563   -0.2021   -2.3809 H   0  0  0  0  0  0  0  0  0  0  0  0
   -3.2179   -1.3550    0.8179 H   0  0  0  0  0  0  0  0  0  0  0  0
   -2.7333    1.7839   -2.0886 H   0  0  0  0  0  0  0  0  0  0  0  0
   -5.6614   -1.1511    0.6394 H   0  0  0  0  0  0  0  0  0  0  0  0
   -5.1693    1.8779   -2.3950 H   0  0  0  0  0  0  0  0  0  0  0  0
   -7.6445   -0.2006   -0.4409 H   0  0  0  0  0  0  0  0  0  0  0  0
   -7.4103    1.5132   -0.8160 H   0  0  0  0  0  0  0  0  0  0  0  0
   -7.3480    0.2956   -2.1120 H   0  0  0  0  0  0  0  0  0  0  0  0
  1  2  1  0
  3  1  2  0
  1  4  1  0
  5  3  1  0
  4  6  2  0
  7  5  2  0
  6  7  1  0
  8  7  1  0
  9  8  1  0
  9 10  1  0
  9 11  2  0
 10 12  2  0
 13 10  1  0
 12 14  1  0
 15 13  2  0
 13 16  1  0
 14 17  1  0
 14 18  2  0
 18 15  1  0
 15 19  1  0
  2 20  2  0
 21  2  1  0
 20 22  1  0
 23 21  2  0
 22 24  2  0
 24 23  1  0
 24 25  1  0
  3 26  1  0
  4 27  1  0
  5 28  1  0
  6 29  1  0
  8 30  1  0
 12 31  1  0
 16 32  1  0
 18 33  1  0
 20 34  1  0
 21 35  1  0
 22 36  1  0
 23 37  1  0
 25 38  1  0
 25 39  1  0
 25 40  1  0
M  END
$$$$

     RDKit          3D

 37 39  0  0  0  0  0  0  0  0999 V2000
    2.2278    0.2738    0.4068 C   0  0  0  0  0  0  0  0  0  0  0  0
    3.6085    0.3975    0.8802 C   0  0  0  0  0  0  0  0  0  0  0  0
    1.9844    0.0904   -0.9113 C   0  0  0  0  0  0  0  0  0  0  0  0
    1.0750    0.2942    1.3150 C   0  0  0  0  0  0  0  0  0  0  0  0
    0.6627   -0.3077   -1.3740 C   0  0  0  0  0  0  0  0  0  0  0  0
   -0.1389   -0.1010    0.8902 C   0  0  0  0  0  0  0  0  0  0  0  0
   -0.3135   -0.5515   -0.4798 C   0  0  0  0  0  0  0  0  0  0  0  0
   -1.2633   -1.5228   -0.6996 N   0  0  0  0  0  0  0  0  0  0  0  0
   -2.3684   -1.2364   -1.4715 C   0  0  0  0  0  0  0  0  0  0  0  0
   -3.4928   -0.6452   -0.7032 C   0  0  0  0  0  0  0  0  0  0  0  0
   -2.4572   -1.5377   -2.6561 O   0  0  0  0  0  0  0  0  0  0  0  0
   -4.3942   -1.5273   -0.2264 C   0  0  0  0  0  0  0  0  0  0  0  0
   -3.8908    0.7401   -0.9116 C   0  0  0  0  0  0  0  0  0  0  0  0
   -5.8121   -1.2046   -0.2817 C   0  0  0  0  0  0  0  0  0  0  0  0
   -5.1990    1.0757   -0.8757 C   0  0  0  0  0  0  0  0  0  0  0  0
   -2.8638    1.6356   -1.1048 O   0  0  0  0  0  0  0  0  0  0  0  0
   -7.0319   -2.5514    0.1260 Br  0  0  0  0  0  0  0  0  0  0  0  0
   -6.1962    0.0478   -0.5966 C   0  0  0  0  0  0  0  0  0  0  0  0
   -5.8061    2.8233   -1.1285 Br  0  0  0  0  0  0  0  0  0  0  0  0
    4.2809   -0.7323    1.2055 C   0  0  0  0  0  0  0  0  0  0  0  0
    4.3542    1.6663    0.9479 C   0  0  0  0  0  0  0  0  0  0  0  0
    5.7328   -0.7454    1.2566 C   0  0  0  0  0  0  0  0  0  0  0  0
    5.6935    1.6658    1.0894 C   0  0  0  0  0  0  0  0  0  0  0  0
    3.5005    3.1665    0.8684 Cl  0  0  0  0  0  0  0  0  0  0  0  0
    6.4146    0.4109    1.1994 C   0  0  0  0  0  0  0  0  0  0  0  0
    2.7126    0.3719   -1.6672 H   0  0  0  0  0  0  0  0  0  0  0  0
    1.2248    0.6587    2.3259 H   0  0  0  0  0  0  0  0  0  0  0  0
    0.4440   -0.2224   -2.4337 H   0  0  0  0  0  0  0  0  0  0  0  0
   -1.0042   -0.0616    1.5419 H   0  0  0  0  0  0  0  0  0  0  0  0
   -0.8584   -2.4110   -0.9778 H   0  0  0  0  0  0  0  0  0  0  0  0
   -4.0787   -2.4552    0.2395 H   0  0  0  0  0  0  0  0  0  0  0  0
   -3.2627    2.5153   -1.2390 H   0  0  0  0  0  0  0  0  0  0  0  0
   -7.2467    0.3177   -0.6374 H   0  0  0  0  0  0  0  0  0  0  0  0
    3.7614   -1.6599    1.4283 H   0  0  0  0  0  0  0  0  0  0  0  0
    6.2396   -1.6997    1.3503 H   0  0  0  0  0  0  0  0  0  0  0  0
    6.2638    2.5873    1.1425 H   0  0  0  0  0  0  0  0  0  0  0  0
    7.4981    0.4344    1.2431 H   0  0  0  0  0  0  0  0  0  0  0  0
  1  2  1  0
  3  1  2  0
  1  4  1  0
  5  3  1  0
  4  6  2  0
  7  5  2  0
  6  7  1  0
  8  7  1  0
  9  8  1  0
  9 10  1  0
  9 11  2  0
 10 12  2  0
 13 10  1  0
 12 14  1  0
 15 13  2  0
 13 16  1  0
 14 17  1  0
 14 18  2  0
 18 15  1  0
 15 19  1  0
  2 20  2  0
 21  2  1  0
 20 22  1  0
 23 21  2  0
 21 24  1  0
 22 25  2  0
 25 23  1  0
  3 26  1  0
  4 27  1  0
  5 28  1  0
  6 29  1  0
  8 30  1  0
 12 31  1  0
 16 32  1  0
 18 33  1  0
 20 34  1  0
 22 35  1  0
 23 36  1  0
 25 37  1  0
M  END
$$$$

     RDKit          3D

 37 39  0  0  0  0  0  0  0  0999 V2000
   -2.2743    0.0185   -0.1142 C   0  0  0  0  0  0  0  0  0  0  0  0
   -3.6123    0.2772   -0.6516 C   0  0  0  0  0  0  0  0  0  0  0  0
   -1.9822    0.3794    1.1567 C   0  0  0  0  0  0  0  0  0  0  0  0
   -1.1930   -0.5537   -0.9237 C   0  0  0  0  0  0  0  0  0  0  0  0
   -0.6013    0.4508    1.6088 C   0  0  0  0  0  0  0  0  0  0  0  0
    0.0850   -0.4843   -0.5083 C   0  0  0  0  0  0  0  0  0  0  0  0
    0.4011    0.1532    0.7604 C   0  0  0  0  0  0  0  0  0  0  0  0
    1.6313    0.7627    0.8610 N   0  0  0  0  0  0  0  0  0  0  0  0
    2.5279    0.3467    1.8165 C   0  0  0  0  0  0  0  0  0  0  0  0
    3.6785   -0.4304    1.2983 C   0  0  0  0  0  0  0  0  0  0  0  0
    2.4886    0.6844    2.9958 O   0  0  0  0  0  0  0  0  0  0  0  0
    3.4567   -1.5764    0.6279 C   0  0  0  0  0  0  0  0  0  0  0  0
    5.0150    0.1552    1.2931 C   0  0  0  0  0  0  0  0  0  0  0  0
    4.3550   -1.9391   -0.4564 C   0  0  0  0  0  0  0  0  0  0  0  0
    5.9121   -0.2533    0.3698 C   0  0  0  0  0  0  0  0  0  0  0  0
    5.3089    1.0790    2.2762 O   0  0  0  0  0  0  0  0  0  0  0  0
    3.8234   -3.3028   -1.6069 Br  0  0  0  0  0  0  0  0  0  0  0  0
    5.5343   -1.2999   -0.5791 C   0  0  0  0  0  0  0  0  0  0  0  0
    7.6524    0.4167    0.2520 Br  0  0  0  0  0  0  0  0  0  0  0  0
   -3.8353    1.4616   -1.2683 C   0  0  0  0  0  0  0  0  0  0  0  0
   -4.7552   -0.6438   -0.5159 C   0  0  0  0  0  0  0  0  0  0  0  0
   -5.1863    1.9149   -1.5544 C   0  0  0  0  0  0  0  0  0  0  0  0
   -6.0008   -0.2479   -0.8388 C   0  0  0  0  0  0  0  0  0  0  0  0
   -4.4904   -2.2543    0.0539 Cl  0  0  0  0  0  0  0  0  0  0  0  0
   -6.2265    1.0912   -1.3463 C   0  0  0  0  0  0  0  0  0  0  0  0
   -7.8406    1.5851   -1.6808 Cl  0  0  0  0  0  0  0  0  0  0  0  0
   -2.7545    0.4380    1.9173 H   0  0  0  0  0  0  0  0  0  0  0  0
   -1.4534   -1.0408   -1.8583 H   0  0  0  0  0  0  0  0  0  0  0  0
   -0.4226    0.5582    2.6748 H   0  0  0  0  0  0  0  0  0  0  0  0
    0.8869   -0.9141   -1.0992 H   0  0  0  0  0  0  0  0  0  0  0  0
    1.5723    1.7755    0.8208 H   0  0  0  0  0  0  0  0  0  0  0  0
    2.6649   -2.2589    0.9189 H   0  0  0  0  0  0  0  0  0  0  0  0
    4.5890    1.0805    2.9410 H   0  0  0  0  0  0  0  0  0  0  0  0
    6.2307   -1.5536   -1.3712 H   0  0  0  0  0  0  0  0  0  0  0  0
   -3.0180    2.1211   -1.5496 H   0  0  0  0  0  0  0  0  0  0  0  0
   -5.3172    2.9209   -1.9398 H   0  0  0  0  0  0  0  0  0  0  0  0
   -6.8499   -0.9172   -0.7384 H   0  0  0  0  0  0  0  0  0  0  0  0
  1  2  1  0
  3  1  2  0
  1  4  1  0
  5  3  1  0
  4  6  2  0
  7  5  2  0
  6  7  1  0
  8  7  1  0
  9  8  1  0
  9 10  1  0
  9 11  2  0
 10 12  2  0
 13 10  1  0
 12 14  1  0
 15 13  2  0
 13 16  1  0
 14 17  1  0
 14 18  2  0
 18 15  1  0
 15 19  1  0
  2 20  2  0
 21  2  1  0
 20 22  1  0
 23 21  2  0
 21 24  1  0
 22 25  2  0
 25 23  1  0
 25 26  1  0
  3 27  1  0
  4 28  1  0
  5 29  1  0
  6 30  1  0
  8 31  1  0
 12 32  1  0
 16 33  1  0
 18 34  1  0
 20 35  1  0
 22 36  1  0
 23 37  1  0
M  END
$$$$

     RDKit          3D

 37 39  0  0  0  0  0  0  0  0999 V2000
   -2.3372    0.2047   -0.1358 C   0  0  0  0  0  0  0  0  0  0  0  0
   -3.6905   -0.2962    0.0944 C   0  0  0  0  0  0  0  0  0  0  0  0
   -1.4314   -0.5756   -0.7661 C   0  0  0  0  0  0  0  0  0  0  0  0
   -1.8696    1.4958    0.3809 C   0  0  0  0  0  0  0  0  0  0  0  0
   -0.0061   -0.3166   -0.6268 C   0  0  0  0  0  0  0  0  0  0  0  0
   -0.5526    1.7526    0.4872 C   0  0  0  0  0  0  0  0  0  0  0  0
    0.4184    0.7451    0.0842 C   0  0  0  0  0  0  0  0  0  0  0  0
    1.6070    0.6870    0.7771 N   0  0  0  0  0  0  0  0  0  0  0  0
    2.6299    1.5497    0.4575 C   0  0  0  0  0  0  0  0  0  0  0  0
    3.7977    0.9170   -0.2047 C   0  0  0  0  0  0  0  0  0  0  0  0
    2.6804    2.7258    0.8040 O   0  0  0  0  0  0  0  0  0  0  0  0
    3.6154    0.2183   -1.3425 C   0  0  0  0  0  0  0  0  0  0  0  0
    5.0597    0.7869    0.5207 C   0  0  0  0  0  0  0  0  0  0  0  0
    4.4082   -0.9814   -1.5628 C   0  0  0  0  0  0  0  0  0  0  0  0
    5.8705   -0.2590    0.2523 C   0  0  0  0  0  0  0  0  0  0  0  0
    5.3693    1.7723    1.4380 O   0  0  0  0  0  0  0  0  0  0  0  0
    3.8888   -2.1281   -2.9335 Br  0  0  0  0  0  0  0  0  0  0  0  0
    5.4910   -1.2090   -0.7941 C   0  0  0  0  0  0  0  0  0  0  0  0
    7.4970   -0.5528    1.1178 Br  0  0  0  0  0  0  0  0  0  0  0  0
   -3.9327   -1.0875    1.1640 C   0  0  0  0  0  0  0  0  0  0  0  0
   -4.8070   -0.0084   -0.8125 C   0  0  0  0  0  0  0  0  0  0  0  0
   -5.2045   -1.7797    1.3106 C   0  0  0  0  0  0  0  0  0  0  0  0
   -6.0006   -0.6077   -0.6512 C   0  0  0  0  0  0  0  0  0  0  0  0
   -6.1996   -1.5448    0.4395 C   0  0  0  0  0  0  0  0  0  0  0  0
   -7.7152   -2.3443    0.5767 Cl  0  0  0  0  0  0  0  0  0  0  0  0
   -1.7374   -1.3570   -1.4541 H   0  0  0  0  0  0  0  0  0  0  0  0
   -2.6115    2.2381    0.6591 H   0  0  0  0  0  0  0  0  0  0  0  0
    0.6813   -0.9452   -1.1838 H   0  0  0  0  0  0  0  0  0  0  0  0
   -0.1934    2.7106    0.8501 H   0  0  0  0  0  0  0  0  0  0  0  0
    1.4703    0.6281    1.7814 H   0  0  0  0  0  0  0  0  0  0  0  0
    2.9525    0.5776   -2.1233 H   0  0  0  0  0  0  0  0  0  0  0  0
    4.7115    2.4933    1.3639 H   0  0  0  0  0  0  0  0  0  0  0  0
    6.1093   -2.0890   -0.9430 H   0  0  0  0  0  0  0  0  0  0  0  0
   -3.1844   -1.2467    1.9354 H   0  0  0  0  0  0  0  0  0  0  0  0
   -4.6453    0.7041   -1.6142 H   0  0  0  0  0  0  0  0  0  0  0  0
   -5.3111   -2.4802    2.1301 H   0  0  0  0  0  0  0  0  0  0  0  0
   -6.8283   -0.3981   -1.3203 H   0  0  0  0  0  0  0  0  0  0  0  0
  1  2  1  0
  3  1  2  0
  1  4  1  0
  5  3  1  0
  4  6  2  0
  7  5  2  0
  6  7  1  0
  8  7  1  0
  9  8  1  0
  9 10  1  0
  9 11  2  0
 10 12  2  0
 13 10  1  0
 12 14  1  0
 15 13  2  0
 13 16  1  0
 14 17  1  0
 14 18  2  0
 18 15  1  0
 15 19  1  0
  2 20  2  0
 21  2  1  0
 20 22  1  0
 23 21  2  0
 22 24  2  0
 24 23  1  0
 24 25  1  0
  3 26  1  0
  4 27  1  0
  5 28  1  0
  6 29  1  0
  8 30  1  0
 12 31  1  0
 16 32  1  0
 18 33  1  0
 20 34  1  0
 21 35  1  0
 22 36  1  0
 23 37  1  0
M  END
$$$$

     RDKit          3D

 38 40  0  0  0  0  0  0  0  0999 V2000
    2.2238    0.5173   -0.2428 C   0  0  0  0  0  0  0  0  0  0  0  0
    3.5751    0.7356   -0.7669 C   0  0  0  0  0  0  0  0  0  0  0  0
    2.0565   -0.2031    0.8897 C   0  0  0  0  0  0  0  0  0  0  0  0
    1.0237    1.0077   -0.9300 C   0  0  0  0  0  0  0  0  0  0  0  0
    0.7264   -0.4971    1.3984 C   0  0  0  0  0  0  0  0  0  0  0  0
   -0.2029    0.7880   -0.4230 C   0  0  0  0  0  0  0  0  0  0  0  0
   -0.3544    0.0665    0.8281 C   0  0  0  0  0  0  0  0  0  0  0  0
   -1.5200    0.2670    1.5260 N   0  0  0  0  0  0  0  0  0  0  0  0
   -2.4003   -0.7742    1.7207 C   0  0  0  0  0  0  0  0  0  0  0  0
   -3.5901   -0.6894    0.8396 C   0  0  0  0  0  0  0  0  0  0  0  0
   -2.2453   -1.6651    2.5469 O   0  0  0  0  0  0  0  0  0  0  0  0
   -3.6490   -1.5804   -0.1708 C   0  0  0  0  0  0  0  0  0  0  0  0
   -4.7978   -0.0044    1.2766 C   0  0  0  0  0  0  0  0  0  0  0  0
   -4.9433   -2.0296   -0.6621 C   0  0  0  0  0  0  0  0  0  0  0  0
   -5.9988   -0.3795    0.7849 C   0  0  0  0  0  0  0  0  0  0  0  0
   -4.6130    1.0256    2.1741 O   0  0  0  0  0  0  0  0  0  0  0  0
   -4.9706   -3.3870   -1.9384 Br  0  0  0  0  0  0  0  0  0  0  0  0
   -6.0695   -1.4534   -0.1996 C   0  0  0  0  0  0  0  0  0  0  0  0
   -7.5992    0.4392    1.2893 Br  0  0  0  0  0  0  0  0  0  0  0  0
    4.2138    1.8757   -0.4137 C   0  0  0  0  0  0  0  0  0  0  0  0
    4.3042   -0.2244   -1.6201 C   0  0  0  0  0  0  0  0  0  0  0  0
    5.6341    2.0534   -0.6659 C   0  0  0  0  0  0  0  0  0  0  0  0
    5.6101   -0.0348   -1.9079 C   0  0  0  0  0  0  0  0  0  0  0  0
    3.6005   -1.3109   -2.1062 O   0  0  0  0  0  0  0  0  0  0  0  0
    6.4593    3.5801    0.0131 Br  0  0  0  0  0  0  0  0  0  0  0  0
    6.3020    1.1350   -1.3858 C   0  0  0  0  0  0  0  0  0  0  0  0
    6.6135   -1.2044   -2.9668 Br  0  0  0  0  0  0  0  0  0  0  0  0
    2.8989   -0.6298    1.4283 H   0  0  0  0  0  0  0  0  0  0  0  0
    1.1507    1.5496   -1.8628 H   0  0  0  0  0  0  0  0  0  0  0  0
    0.6308   -1.2243    2.2002 H   0  0  0  0  0  0  0  0  0  0  0  0
   -1.0922    1.1439   -0.9327 H   0  0  0  0  0  0  0  0  0  0  0  0
   -1.4136    0.8268    2.3656 H   0  0  0  0  0  0  0  0  0  0  0  0
   -2.7449   -1.9944   -0.6087 H   0  0  0  0  0  0  0  0  0  0  0  0
   -5.4952    1.3798    2.3935 H   0  0  0  0  0  0  0  0  0  0  0  0
   -7.0462   -1.7708   -0.5523 H   0  0  0  0  0  0  0  0  0  0  0  0
    3.6745    2.6952    0.0532 H   0  0  0  0  0  0  0  0  0  0  0  0
    2.6870   -1.2768   -1.7774 H   0  0  0  0  0  0  0  0  0  0  0  0
    7.3612    1.2475   -1.5942 H   0  0  0  0  0  0  0  0  0  0  0  0
  1  2  1  0
  3  1  2  0
  1  4  1  0
  5  3  1  0
  4  6  2  0
  7  5  2  0
  6  7  1  0
  8  7  1  0
  9  8  1  0
  9 10  1  0
  9 11  2  0
 10 12  2  0
 13 10  1  0
 12 14  1  0
 15 13  2  0
 13 16  1  0
 14 17  1  0
 14 18  2  0
 18 15  1  0
 15 19  1  0
  2 20  2  0
 21  2  1  0
 20 22  1  0
 23 21  2  0
 21 24  1  0
 22 25  1  0
 22 26  2  0
 26 23  1  0
 23 27  1  0
  3 28  1  0
  4 29  1  0
  5 30  1  0
  6 31  1  0
  8 32  1  0
 12 33  1  0
 16 34  1  0
 18 35  1  0
 20 36  1  0
 24 37  1  0
 26 38  1  0
M  END
$$$$

     RDKit          3D

 37 39  0  0  0  0  0  0  0  0999 V2000
   -2.4480    0.0585    0.1442 C   0  0  0  0  0  0  0  0  0  0  0  0
   -3.8524   -0.1051   -0.2271 C   0  0  0  0  0  0  0  0  0  0  0  0
   -1.6360   -1.0224    0.2025 C   0  0  0  0  0  0  0  0  0  0  0  0
   -1.8492    1.3671    0.4168 C   0  0  0  0  0  0  0  0  0  0  0  0
   -0.1893   -0.8639    0.2109 C   0  0  0  0  0  0  0  0  0  0  0  0
   -0.5114    1.5167    0.4335 C   0  0  0  0  0  0  0  0  0  0  0  0
    0.3470    0.3708    0.1692 C   0  0  0  0  0  0  0  0  0  0  0  0
    1.5273    0.5912   -0.4971 N   0  0  0  0  0  0  0  0  0  0  0  0
    2.6349    1.0513    0.1776 C   0  0  0  0  0  0  0  0  0  0  0  0
    3.6976    0.0237    0.2892 C   0  0  0  0  0  0  0  0  0  0  0  0
    2.7632    2.1885    0.6159 O   0  0  0  0  0  0  0  0  0  0  0  0
    3.9046   -0.4784    1.5230 C   0  0  0  0  0  0  0  0  0  0  0  0
    4.7571   -0.0517   -0.7063 C   0  0  0  0  0  0  0  0  0  0  0  0
    5.2584   -0.8041    1.9486 C   0  0  0  0  0  0  0  0  0  0  0  0
    6.0038   -0.4239   -0.3397 C   0  0  0  0  0  0  0  0  0  0  0  0
    4.3866    0.2593   -1.9937 O   0  0  0  0  0  0  0  0  0  0  0  0
    5.5234   -1.2595    3.7336 Br  0  0  0  0  0  0  0  0  0  0  0  0
    6.2653   -0.7732    1.0525 C   0  0  0  0  0  0  0  0  0  0  0  0
    7.4288   -0.5307   -1.5416 Br  0  0  0  0  0  0  0  0  0  0  0  0
   -4.1969   -0.1358   -1.5337 C   0  0  0  0  0  0  0  0  0  0  0  0
   -4.9293   -0.1628    0.7677 C   0  0  0  0  0  0  0  0  0  0  0  0
   -5.5931   -0.1328   -1.9441 C   0  0  0  0  0  0  0  0  0  0  0  0
   -6.2216   -0.1818    0.3910 C   0  0  0  0  0  0  0  0  0  0  0  0
   -6.5726   -0.1575   -1.0214 C   0  0  0  0  0  0  0  0  0  0  0  0
   -8.3781   -0.1558   -1.4791 Br  0  0  0  0  0  0  0  0  0  0  0  0
   -2.0324   -2.0229    0.3444 H   0  0  0  0  0  0  0  0  0  0  0  0
   -2.5111    2.2038    0.6197 H   0  0  0  0  0  0  0  0  0  0  0  0
    0.4268   -1.7444    0.3452 H   0  0  0  0  0  0  0  0  0  0  0  0
   -0.0535    2.4726    0.6630 H   0  0  0  0  0  0  0  0  0  0  0  0
    1.4196    1.0408   -1.3997 H   0  0  0  0  0  0  0  0  0  0  0  0
    3.0804   -0.6209    2.2155 H   0  0  0  0  0  0  0  0  0  0  0  0
    5.1871    0.2004   -2.5475 H   0  0  0  0  0  0  0  0  0  0  0  0
    7.2835   -1.0114    1.3439 H   0  0  0  0  0  0  0  0  0  0  0  0
   -3.4467   -0.1895   -2.3183 H   0  0  0  0  0  0  0  0  0  0  0  0
   -4.6547   -0.1828    1.8171 H   0  0  0  0  0  0  0  0  0  0  0  0
   -5.8071   -0.1139   -3.0066 H   0  0  0  0  0  0  0  0  0  0  0  0
   -7.0121   -0.2194    1.1306 H   0  0  0  0  0  0  0  0  0  0  0  0
  1  2  1  0
  3  1  2  0
  1  4  1  0
  5  3  1  0
  4  6  2  0
  7  5  2  0
  6  7  1  0
  8  7  1  0
  9  8  1  0
  9 10  1  0
  9 11  2  0
 10 12  2  0
 13 10  1  0
 12 14  1  0
 15 13  2  0
 13 16  1  0
 14 17  1  0
 14 18  2  0
 18 15  1  0
 15 19  1  0
  2 20  2  0
 21  2  1  0
 20 22  1  0
 23 21  2  0
 22 24  2  0
 24 23  1  0
 24 25  1  0
  3 26  1  0
  4 27  1  0
  5 28  1  0
  6 29  1  0
  8 30  1  0
 12 31  1  0
 16 32  1  0
 18 33  1  0
 20 34  1  0
 21 35  1  0
 22 36  1  0
 23 37  1  0
M  END
$$$$

     RDKit          3D

 38 40  0  0  0  0  0  0  0  0999 V2000
   -1.9510   -0.6853   -0.4087 C   0  0  0  0  0  0  0  0  0  0  0  0
   -3.2740   -0.8394   -1.0184 C   0  0  0  0  0  0  0  0  0  0  0  0
   -0.8612   -0.5704   -1.2016 C   0  0  0  0  0  0  0  0  0  0  0  0
   -1.7502   -0.6299    1.0431 C   0  0  0  0  0  0  0  0  0  0  0  0
    0.4452   -0.2704   -0.6387 C   0  0  0  0  0  0  0  0  0  0  0  0
   -0.5272   -0.4347    1.5679 C   0  0  0  0  0  0  0  0  0  0  0  0
    0.6272   -0.2924    0.6942 C   0  0  0  0  0  0  0  0  0  0  0  0
    1.8788   -0.5088    1.2237 N   0  0  0  0  0  0  0  0  0  0  0  0
    2.4541    0.4249    2.0523 C   0  0  0  0  0  0  0  0  0  0  0  0
    3.4370    1.3264    1.4021 C   0  0  0  0  0  0  0  0  0  0  0  0
    2.3007    0.4522    3.2700 O   0  0  0  0  0  0  0  0  0  0  0  0
    3.0483    2.0944    0.3665 C   0  0  0  0  0  0  0  0  0  0  0  0
    4.8610    1.1718    1.6830 C   0  0  0  0  0  0  0  0  0  0  0  0
    3.9860    2.3286   -0.7211 C   0  0  0  0  0  0  0  0  0  0  0  0
    5.7620    1.4973    0.7301 C   0  0  0  0  0  0  0  0  0  0  0  0
    5.2173    0.7259    2.9404 O   0  0  0  0  0  0  0  0  0  0  0  0
    3.3241    3.0504   -2.3044 Br  0  0  0  0  0  0  0  0  0  0  0  0
    5.2902    2.0389   -0.5432 C   0  0  0  0  0  0  0  0  0  0  0  0
    7.6085    1.3332    0.9510 Br  0  0  0  0  0  0  0  0  0  0  0  0
   -4.0334    0.2649   -1.2092 C   0  0  0  0  0  0  0  0  0  0  0  0
   -3.8933   -2.1407   -1.3148 C   0  0  0  0  0  0  0  0  0  0  0  0
   -5.4742    0.1600   -1.3698 C   0  0  0  0  0  0  0  0  0  0  0  0
   -5.2158   -2.2381   -1.5496 C   0  0  0  0  0  0  0  0  0  0  0  0
   -3.0403   -3.2193   -1.3466 O   0  0  0  0  0  0  0  0  0  0  0  0
   -6.0439   -1.0455   -1.5326 C   0  0  0  0  0  0  0  0  0  0  0  0
   -0.9153   -0.7699   -2.2681 H   0  0  0  0  0  0  0  0  0  0  0  0
   -2.6205   -0.7454    1.6812 H   0  0  0  0  0  0  0  0  0  0  0  0
    1.2682   -0.1127   -1.3270 H   0  0  0  0  0  0  0  0  0  0  0  0
   -0.3866   -0.3798    2.6428 H   0  0  0  0  0  0  0  0  0  0  0  0
    1.9972   -1.4520    1.5815 H   0  0  0  0  0  0  0  0  0  0  0  0
    2.0754    2.5757    0.3500 H   0  0  0  0  0  0  0  0  0  0  0  0
    4.4206    0.6964    3.5083 H   0  0  0  0  0  0  0  0  0  0  0  0
    6.0157    2.2114   -1.3318 H   0  0  0  0  0  0  0  0  0  0  0  0
   -3.5934    1.2569   -1.2477 H   0  0  0  0  0  0  0  0  0  0  0  0
   -6.0628    1.0710   -1.3645 H   0  0  0  0  0  0  0  0  0  0  0  0
   -5.6978   -3.1828   -1.7704 H   0  0  0  0  0  0  0  0  0  0  0  0
   -3.5614   -4.0100   -1.5583 H   0  0  0  0  0  0  0  0  0  0  0  0
   -7.1155   -1.1528   -1.6617 H   0  0  0  0  0  0  0  0  0  0  0  0
  1  2  1  0
  3  1  2  0
  1  4  1  0
  5  3  1  0
  4  6  2  0
  7  5  2  0
  6  7  1  0
  8  7  1  0
  9  8  1  0
  9 10  1  0
  9 11  2  0
 10 12  2  0
 13 10  1  0
 12 14  1  0
 15 13  2  0
 13 16  1  0
 14 17  1  0
 14 18  2  0
 18 15  1  0
 15 19  1  0
  2 20  2  0
 21  2  1  0
 20 22  1  0
 23 21  2  0
 21 24  1  0
 22 25  2  0
 25 23  1  0
  3 26  1  0
  4 27  1  0
  5 28  1  0
  6 29  1  0
  8 30  1  0
 12 31  1  0
 16 32  1  0
 18 33  1  0
 20 34  1  0
 22 35  1  0
 23 36  1  0
 24 37  1  0
 25 38  1  0
M  END
$$$$

     RDKit          3D

 41 43  0  0  0  0  0  0  0  0999 V2000
   -1.6196   -0.0141   -0.4647 C   0  0  0  0  0  0  0  0  0  0  0  0
   -3.0490    0.1069   -0.1687 C   0  0  0  0  0  0  0  0  0  0  0  0
   -0.7306    0.7416    0.2199 C   0  0  0  0  0  0  0  0  0  0  0  0
   -1.0948   -0.9974   -1.4181 C   0  0  0  0  0  0  0  0  0  0  0  0
    0.7013    0.5501    0.0535 C   0  0  0  0  0  0  0  0  0  0  0  0
    0.2292   -1.1408   -1.6065 C   0  0  0  0  0  0  0  0  0  0  0  0
    1.1672   -0.2998   -0.8792 C   0  0  0  0  0  0  0  0  0  0  0  0
    2.4339   -0.1467   -1.3937 N   0  0  0  0  0  0  0  0  0  0  0  0
    3.3707   -1.1399   -1.2291 C   0  0  0  0  0  0  0  0  0  0  0  0
    4.4293   -0.8417   -0.2340 C   0  0  0  0  0  0  0  0  0  0  0  0
    3.4417   -2.1477   -1.9262 O   0  0  0  0  0  0  0  0  0  0  0  0
    4.0843   -0.5760    1.0403 C   0  0  0  0  0  0  0  0  0  0  0  0
    5.7888   -0.5563   -0.6835 C   0  0  0  0  0  0  0  0  0  0  0  0
    4.8573    0.4076    1.7842 C   0  0  0  0  0  0  0  0  0  0  0  0
    6.5713    0.2618    0.0543 C   0  0  0  0  0  0  0  0  0  0  0  0
    6.2209   -1.1755   -1.8391 O   0  0  0  0  0  0  0  0  0  0  0  0
    4.1510    1.0383    3.3877 Br  0  0  0  0  0  0  0  0  0  0  0  0
    6.0519    0.8095    1.3066 C   0  0  0  0  0  0  0  0  0  0  0  0
    8.3221    0.7193   -0.4103 Br  0  0  0  0  0  0  0  0  0  0  0  0
   -3.7814    0.9881   -0.8886 C   0  0  0  0  0  0  0  0  0  0  0  0
   -3.7422   -0.6222    0.9083 C   0  0  0  0  0  0  0  0  0  0  0  0
   -5.1047    1.4003   -0.4488 C   0  0  0  0  0  0  0  0  0  0  0  0
   -4.9928   -0.2921    1.2709 C   0  0  0  0  0  0  0  0  0  0  0  0
   -3.0820   -1.6547    1.5405 O   0  0  0  0  0  0  0  0  0  0  0  0
   -5.7000    0.7866    0.5924 C   0  0  0  0  0  0  0  0  0  0  0  0
   -7.0611    1.1491    1.1007 C   0  0  0  0  0  0  0  0  0  0  0  0
   -1.0549    1.4904    0.9387 H   0  0  0  0  0  0  0  0  0  0  0  0
   -1.8052   -1.6175   -1.9583 H   0  0  0  0  0  0  0  0  0  0  0  0
    1.3663    1.1158    0.6978 H   0  0  0  0  0  0  0  0  0  0  0  0
    0.6155   -1.8860   -2.2952 H   0  0  0  0  0  0  0  0  0  0  0  0
    2.4366    0.2200   -2.3407 H   0  0  0  0  0  0  0  0  0  0  0  0
    3.3061   -1.1383    1.5457 H   0  0  0  0  0  0  0  0  0  0  0  0
    5.5611   -1.8469   -2.1084 H   0  0  0  0  0  0  0  0  0  0  0  0
    6.6559    1.5352    1.8428 H   0  0  0  0  0  0  0  0  0  0  0  0
   -3.4069    1.4231   -1.8109 H   0  0  0  0  0  0  0  0  0  0  0  0
   -5.5888    2.2061   -0.9907 H   0  0  0  0  0  0  0  0  0  0  0  0
   -5.4939   -0.8338    2.0658 H   0  0  0  0  0  0  0  0  0  0  0  0
   -2.2047   -1.7521    1.1345 H   0  0  0  0  0  0  0  0  0  0  0  0
   -7.0069    1.4688    2.1459 H   0  0  0  0  0  0  0  0  0  0  0  0
   -7.7390    0.2923    1.0338 H   0  0  0  0  0  0  0  0  0  0  0  0
   -7.5038    1.9688    0.5247 H   0  0  0  0  0  0  0  0  0  0  0  0
  1  2  1  0
  3  1  2  0
  1  4  1  0
  5  3  1  0
  4  6  2  0
  7  5  2  0
  6  7  1  0
  8  7  1  0
  9  8  1  0
  9 10  1  0
  9 11  2  0
 10 12  2  0
 13 10  1  0
 12 14  1  0
 15 13  2  0
 13 16  1  0
 14 17  1  0
 14 18  2  0
 18 15  1  0
 15 19  1  0
  2 20  2  0
 21  2  1  0
 20 22  1  0
 23 21  2  0
 21 24  1  0
 22 25  2  0
 25 23  1  0
 25 26  1  0
  3 27  1  0
  4 28  1  0
  5 29  1  0
  6 30  1  0
  8 31  1  0
 12 32  1  0
 16 33  1  0
 18 34  1  0
 20 35  1  0
 22 36  1  0
 23 37  1  0
 24 38  1  0
 26 39  1  0
 26 40  1  0
 26 41  1  0
M  END
$$$$

     RDKit          3D

 37 39  0  0  0  0  0  0  0  0999 V2000
   -2.3339   -0.0785    0.0188 C   0  0  0  0  0  0  0  0  0  0  0  0
   -3.6427    0.5592    0.1580 C   0  0  0  0  0  0  0  0  0  0  0  0
   -1.4021    0.4734   -0.7912 C   0  0  0  0  0  0  0  0  0  0  0  0
   -1.9283   -1.2431    0.8119 C   0  0  0  0  0  0  0  0  0  0  0  0
    0.0106    0.1744   -0.5982 C   0  0  0  0  0  0  0  0  0  0  0  0
   -0.6245   -1.5354    0.9757 C   0  0  0  0  0  0  0  0  0  0  0  0
    0.3890   -0.6892    0.3619 C   0  0  0  0  0  0  0  0  0  0  0  0
    1.5584   -0.4810    1.0578 N   0  0  0  0  0  0  0  0  0  0  0  0
    2.5501   -1.4325    1.0479 C   0  0  0  0  0  0  0  0  0  0  0  0
    3.7245   -1.1014    0.2038 C   0  0  0  0  0  0  0  0  0  0  0  0
    2.5715   -2.4175    1.7792 O   0  0  0  0  0  0  0  0  0  0  0  0
    3.5531   -0.9101   -1.1178 C   0  0  0  0  0  0  0  0  0  0  0  0
    4.9806   -0.7009    0.8292 C   0  0  0  0  0  0  0  0  0  0  0  0
    4.3631    0.0929   -1.7935 C   0  0  0  0  0  0  0  0  0  0  0  0
    5.8141    0.1351    0.1695 C   0  0  0  0  0  0  0  0  0  0  0  0
    5.2764   -1.2395    2.0646 O   0  0  0  0  0  0  0  0  0  0  0  0
    3.8601    0.6115   -3.5094 Br  0  0  0  0  0  0  0  0  0  0  0  0
    5.4529    0.5875   -1.1736 C   0  0  0  0  0  0  0  0  0  0  0  0
    7.4392    0.7441    0.8594 Br  0  0  0  0  0  0  0  0  0  0  0  0
   -3.8071    1.5544    1.0598 C   0  0  0  0  0  0  0  0  0  0  0  0
   -4.8160    0.1461   -0.6170 C   0  0  0  0  0  0  0  0  0  0  0  0
   -5.0860    2.2333    1.2052 C   0  0  0  0  0  0  0  0  0  0  0  0
   -6.0013    0.7608   -0.4791 C   0  0  0  0  0  0  0  0  0  0  0  0
   -4.6854   -0.8691   -1.4965 F   0  0  0  0  0  0  0  0  0  0  0  0
   -6.1405    1.8560    0.4611 C   0  0  0  0  0  0  0  0  0  0  0  0
   -1.6829    1.0222   -1.6847 H   0  0  0  0  0  0  0  0  0  0  0  0
   -2.7053   -1.8692    1.2451 H   0  0  0  0  0  0  0  0  0  0  0  0
    0.7105    0.5363   -1.3460 H   0  0  0  0  0  0  0  0  0  0  0  0
   -0.3120   -2.4145    1.5336 H   0  0  0  0  0  0  0  0  0  0  0  0
    1.4033   -0.1086    1.9901 H   0  0  0  0  0  0  0  0  0  0  0  0
    2.9092   -1.5592   -1.7023 H   0  0  0  0  0  0  0  0  0  0  0  0
    4.6213   -1.9369    2.2750 H   0  0  0  0  0  0  0  0  0  0  0  0
    6.0820    1.3304   -1.6592 H   0  0  0  0  0  0  0  0  0  0  0  0
   -2.9799    1.9185    1.6631 H   0  0  0  0  0  0  0  0  0  0  0  0
   -5.1593    3.0481    1.9179 H   0  0  0  0  0  0  0  0  0  0  0  0
   -6.8594    0.4578   -1.0644 H   0  0  0  0  0  0  0  0  0  0  0  0
   -7.1035    2.3449    0.5474 H   0  0  0  0  0  0  0  0  0  0  0  0
  1  2  1  0
  3  1  2  0
  1  4  1  0
  5  3  1  0
  4  6  2  0
  7  5  2  0
  6  7  1  0
  8  7  1  0
  9  8  1  0
  9 10  1  0
  9 11  2  0
 10 12  2  0
 13 10  1  0
 12 14  1  0
 15 13  2  0
 13 16  1  0
 14 17  1  0
 14 18  2  0
 18 15  1  0
 15 19  1  0
  2 20  2  0
 21  2  1  0
 20 22  1  0
 23 21  2  0
 21 24  1  0
 22 25  2  0
 25 23  1  0
  3 26  1  0
  4 27  1  0
  5 28  1  0
  6 29  1  0
  8 30  1  0
 12 31  1  0
 16 32  1  0
 18 33  1  0
 20 34  1  0
 22 35  1  0
 23 36  1  0
 25 37  1  0
M  END
$$$$

     RDKit          3D

 37 39  0  0  0  0  0  0  0  0999 V2000
    2.3008    0.1931    0.4377 C   0  0  0  0  0  0  0  0  0  0  0  0
    3.6782    0.5718    0.7503 C   0  0  0  0  0  0  0  0  0  0  0  0
    2.0409   -1.0521   -0.0207 C   0  0  0  0  0  0  0  0  0  0  0  0
    1.1825    1.1384    0.5225 C   0  0  0  0  0  0  0  0  0  0  0  0
    0.7453   -1.3813   -0.5955 C   0  0  0  0  0  0  0  0  0  0  0  0
   -0.0179    0.8342   -0.0034 C   0  0  0  0  0  0  0  0  0  0  0  0
   -0.2189   -0.4451   -0.6618 C   0  0  0  0  0  0  0  0  0  0  0  0
   -1.2499   -0.5267   -1.5672 N   0  0  0  0  0  0  0  0  0  0  0  0
   -2.3135   -1.3688   -1.3323 C   0  0  0  0  0  0  0  0  0  0  0  0
   -3.4883   -0.6702   -0.7566 C   0  0  0  0  0  0  0  0  0  0  0  0
   -2.3124   -2.5657   -1.5934 O   0  0  0  0  0  0  0  0  0  0  0  0
   -3.7287   -0.8962    0.5505 C   0  0  0  0  0  0  0  0  0  0  0  0
   -4.5561   -0.1753   -1.6142 C   0  0  0  0  0  0  0  0  0  0  0  0
   -5.0979   -0.9000    1.0431 C   0  0  0  0  0  0  0  0  0  0  0  0
   -5.8222   -0.1184   -1.1464 C   0  0  0  0  0  0  0  0  0  0  0  0
   -4.1747    0.2331   -2.8738 O   0  0  0  0  0  0  0  0  0  0  0  0
   -5.3874   -1.4078    2.8115 Br  0  0  0  0  0  0  0  0  0  0  0  0
   -6.1014   -0.5292    0.2251 C   0  0  0  0  0  0  0  0  0  0  0  0
   -7.2549    0.4991   -2.1729 Br  0  0  0  0  0  0  0  0  0  0  0  0
    4.1287    0.4557    2.0212 C   0  0  0  0  0  0  0  0  0  0  0  0
    4.5957    1.1125   -0.2623 C   0  0  0  0  0  0  0  0  0  0  0  0
    5.4782    0.8652    2.3778 C   0  0  0  0  0  0  0  0  0  0  0  0
    5.8458    1.4860    0.0666 C   0  0  0  0  0  0  0  0  0  0  0  0
    6.2940    1.3568    1.4339 C   0  0  0  0  0  0  0  0  0  0  0  0
    7.5496    1.7403    1.7366 F   0  0  0  0  0  0  0  0  0  0  0  0
    2.7366   -1.8706    0.1374 H   0  0  0  0  0  0  0  0  0  0  0  0
    1.3516    2.0869    1.0231 H   0  0  0  0  0  0  0  0  0  0  0  0
    0.5330   -2.4262   -0.8047 H   0  0  0  0  0  0  0  0  0  0  0  0
   -0.8492    1.5282    0.0587 H   0  0  0  0  0  0  0  0  0  0  0  0
   -0.9463   -0.5769   -2.5339 H   0  0  0  0  0  0  0  0  0  0  0  0
   -2.9168   -1.0860    1.2465 H   0  0  0  0  0  0  0  0  0  0  0  0
   -4.9812    0.5163   -3.3437 H   0  0  0  0  0  0  0  0  0  0  0  0
   -7.1305   -0.5206    0.5713 H   0  0  0  0  0  0  0  0  0  0  0  0
    3.5045    0.0504    2.8124 H   0  0  0  0  0  0  0  0  0  0  0  0
    4.2361    1.1992   -1.2840 H   0  0  0  0  0  0  0  0  0  0  0  0
    5.8079    0.7649    3.4047 H   0  0  0  0  0  0  0  0  0  0  0  0
    6.5385    1.8850   -0.6646 H   0  0  0  0  0  0  0  0  0  0  0  0
  1  2  1  0
  3  1  2  0
  1  4  1  0
  5  3  1  0
  4  6  2  0
  7  5  2  0
  6  7  1  0
  8  7  1  0
  9  8  1  0
  9 10  1  0
  9 11  2  0
 10 12  2  0
 13 10  1  0
 12 14  1  0
 15 13  2  0
 13 16  1  0
 14 17  1  0
 14 18  2  0
 18 15  1  0
 15 19  1  0
  2 20  2  0
 21  2  1  0
 20 22  1  0
 23 21  2  0
 22 24  2  0
 24 23  1  0
 24 25  1  0
  3 26  1  0
  4 27  1  0
  5 28  1  0
  6 29  1  0
  8 30  1  0
 12 31  1  0
 16 32  1  0
 18 33  1  0
 20 34  1  0
 21 35  1  0
 22 36  1  0
 23 37  1  0
M  END
$$$$

     RDKit          3D

 37 39  0  0  0  0  0  0  0  0999 V2000
    2.4498    0.4682    0.4917 C   0  0  0  0  0  0  0  0  0  0  0  0
    3.8007    0.8666    0.0971 C   0  0  0  0  0  0  0  0  0  0  0  0
    1.4496    1.3807    0.4716 C   0  0  0  0  0  0  0  0  0  0  0  0
    2.0959   -0.9199    0.8148 C   0  0  0  0  0  0  0  0  0  0  0  0
    0.0555    0.9551    0.4838 C   0  0  0  0  0  0  0  0  0  0  0  0
    0.8089   -1.3121    0.8252 C   0  0  0  0  0  0  0  0  0  0  0  0
   -0.2426   -0.3582    0.4982 C   0  0  0  0  0  0  0  0  0  0  0  0
   -1.3260   -0.8277   -0.2060 N   0  0  0  0  0  0  0  0  0  0  0  0
   -2.4003   -1.3796    0.4552 C   0  0  0  0  0  0  0  0  0  0  0  0
   -3.6584   -0.6399    0.1877 C   0  0  0  0  0  0  0  0  0  0  0  0
   -2.3627   -2.3965    1.1400 O   0  0  0  0  0  0  0  0  0  0  0  0
   -4.1366    0.1247    1.1915 C   0  0  0  0  0  0  0  0  0  0  0  0
   -4.5501   -1.0708   -0.8817 C   0  0  0  0  0  0  0  0  0  0  0  0
   -5.5760    0.2676    1.3625 C   0  0  0  0  0  0  0  0  0  0  0  0
   -5.8832   -0.8881   -0.7598 C   0  0  0  0  0  0  0  0  0  0  0  0
   -3.9370   -1.6202   -1.9870 O   0  0  0  0  0  0  0  0  0  0  0  0
   -6.1920    1.1576    2.8807 Br  0  0  0  0  0  0  0  0  0  0  0  0
   -6.4123   -0.2289    0.4288 C   0  0  0  0  0  0  0  0  0  0  0  0
   -7.1037   -1.3950   -2.0816 Br  0  0  0  0  0  0  0  0  0  0  0  0
    4.7512    1.0193    1.0488 C   0  0  0  0  0  0  0  0  0  0  0  0
    4.2187    0.9654   -1.3074 C   0  0  0  0  0  0  0  0  0  0  0  0
    6.1621    1.0204    0.6986 C   0  0  0  0  0  0  0  0  0  0  0  0
    5.5213    1.0415   -1.6372 C   0  0  0  0  0  0  0  0  0  0  0  0
    6.5331    1.0435   -0.5941 C   0  0  0  0  0  0  0  0  0  0  0  0
    1.6499    2.4432    0.5881 H   0  0  0  0  0  0  0  0  0  0  0  0
    2.8981   -1.6144    1.0567 H   0  0  0  0  0  0  0  0  0  0  0  0
   -0.7085    1.7114    0.6374 H   0  0  0  0  0  0  0  0  0  0  0  0
    0.5289   -2.3282    1.0859 H   0  0  0  0  0  0  0  0  0  0  0  0
   -1.0845   -1.3519   -1.0412 H   0  0  0  0  0  0  0  0  0  0  0  0
   -3.4662    0.6143    1.8929 H   0  0  0  0  0  0  0  0  0  0  0  0
   -4.6428   -1.9426   -2.5796 H   0  0  0  0  0  0  0  0  0  0  0  0
   -7.4894   -0.1314    0.5347 H   0  0  0  0  0  0  0  0  0  0  0  0
    4.4931    1.1766    2.0935 H   0  0  0  0  0  0  0  0  0  0  0  0
    3.4453    0.9735   -2.0712 H   0  0  0  0  0  0  0  0  0  0  0  0
    6.8944    1.0229    1.5008 H   0  0  0  0  0  0  0  0  0  0  0  0
    5.8371    1.0952   -2.6727 H   0  0  0  0  0  0  0  0  0  0  0  0
    7.5784    1.0576   -0.8819 H   0  0  0  0  0  0  0  0  0  0  0  0
  1  2  1  0
  3  1  2  0
  1  4  1  0
  5  3  1  0
  4  6  2  0
  7  5  2  0
  6  7  1  0
  8  7  1  0
  9  8  1  0
  9 10  1  0
  9 11  2  0
 10 12  2  0
 13 10  1  0
 12 14  1  0
 15 13  2  0
 13 16  1  0
 14 17  1  0
 14 18  2  0
 18 15  1  0
 15 19  1  0
  2 20  2  0
 21  2  1  0
 20 22  1  0
 23 21  2  0
 22 24  2  0
 24 23  1  0
  3 25  1  0
  4 26  1  0
  5 27  1  0
  6 28  1  0
  8 29  1  0
 12 30  1  0
 16 31  1  0
 18 32  1  0
 20 33  1  0
 21 34  1  0
 22 35  1  0
 23 36  1  0
 24 37  1  0
M  END
$$$$

     RDKit          3D

 37 39  0  0  0  0  0  0  0  0999 V2000
    2.3475   -0.2262    0.0263 C   0  0  0  0  0  0  0  0  0  0  0  0
    3.7677   -0.5162   -0.1607 C   0  0  0  0  0  0  0  0  0  0  0  0
    1.9760    0.9250    0.6321 C   0  0  0  0  0  0  0  0  0  0  0  0
    1.2846   -1.0875   -0.5014 C   0  0  0  0  0  0  0  0  0  0  0  0
    0.6277    1.4478    0.4661 C   0  0  0  0  0  0  0  0  0  0  0  0
    0.0262   -0.6264   -0.6204 C   0  0  0  0  0  0  0  0  0  0  0  0
   -0.2904    0.7306   -0.2081 C   0  0  0  0  0  0  0  0  0  0  0  0
   -1.3986    1.3145   -0.7727 N   0  0  0  0  0  0  0  0  0  0  0  0
   -2.4821    1.6416    0.0112 C   0  0  0  0  0  0  0  0  0  0  0  0
   -3.5723    0.6386   -0.0626 C   0  0  0  0  0  0  0  0  0  0  0  0
   -2.5622    2.6641    0.6813 O   0  0  0  0  0  0  0  0  0  0  0  0
   -3.7184   -0.1590    1.0146 C   0  0  0  0  0  0  0  0  0  0  0  0
   -4.6718    0.7983   -1.0031 C   0  0  0  0  0  0  0  0  0  0  0  0
   -5.0398   -0.6538    1.3711 C   0  0  0  0  0  0  0  0  0  0  0  0
   -5.8886    0.2922   -0.7066 C   0  0  0  0  0  0  0  0  0  0  0  0
   -4.3695    1.4583   -2.1748 O   0  0  0  0  0  0  0  0  0  0  0  0
   -5.2198   -1.5984    2.9674 Br  0  0  0  0  0  0  0  0  0  0  0  0
   -6.0803   -0.4336    0.5437 C   0  0  0  0  0  0  0  0  0  0  0  0
   -7.3570    0.4480   -1.8493 Br  0  0  0  0  0  0  0  0  0  0  0  0
    4.3898   -0.0895   -1.2856 C   0  0  0  0  0  0  0  0  0  0  0  0
    4.5539   -1.3041    0.7950 C   0  0  0  0  0  0  0  0  0  0  0  0
    5.7689   -0.4613   -1.5649 C   0  0  0  0  0  0  0  0  0  0  0  0
    5.8308   -1.6379    0.5503 C   0  0  0  0  0  0  0  0  0  0  0  0
    3.9649   -1.6977    1.9441 F   0  0  0  0  0  0  0  0  0  0  0  0
    6.4501   -1.2046   -0.6796 C   0  0  0  0  0  0  0  0  0  0  0  0
    7.7293   -1.5551   -0.9137 F   0  0  0  0  0  0  0  0  0  0  0  0
    2.6032    1.3968    1.3834 H   0  0  0  0  0  0  0  0  0  0  0  0
    1.5410   -2.1040   -0.7826 H   0  0  0  0  0  0  0  0  0  0  0  0
    0.3387    2.3029    1.0699 H   0  0  0  0  0  0  0  0  0  0  0  0
   -0.7685   -1.2580   -1.0028 H   0  0  0  0  0  0  0  0  0  0  0  0
   -1.1825    2.0563   -1.4300 H   0  0  0  0  0  0  0  0  0  0  0  0
   -2.8664   -0.4389    1.6273 H   0  0  0  0  0  0  0  0  0  0  0  0
   -5.1926    1.5201   -2.6948 H   0  0  0  0  0  0  0  0  0  0  0  0
   -7.0735   -0.7972    0.7861 H   0  0  0  0  0  0  0  0  0  0  0  0
    3.8925    0.5624   -1.9992 H   0  0  0  0  0  0  0  0  0  0  0  0
    6.2304   -0.1265   -2.4864 H   0  0  0  0  0  0  0  0  0  0  0  0
    6.4113   -2.2213    1.2533 H   0  0  0  0  0  0  0  0  0  0  0  0
  1  2  1  0
  3  1  2  0
  1  4  1  0
  5  3  1  0
  4  6  2  0
  7  5  2  0
  6  7  1  0
  8  7  1  0
  9  8  1  0
  9 10  1  0
  9 11  2  0
 10 12  2  0
 13 10  1  0
 12 14  1  0
 15 13  2  0
 13 16  1  0
 14 17  1  0
 14 18  2  0
 18 15  1  0
 15 19  1  0
  2 20  2  0
 21  2  1  0
 20 22  1  0
 23 21  2  0
 21 24  1  0
 22 25  2  0
 25 23  1  0
 25 26  1  0
  3 27  1  0
  4 28  1  0
  5 29  1  0
  6 30  1  0
  8 31  1  0
 12 32  1  0
 16 33  1  0
 18 34  1  0
 20 35  1  0
 22 36  1  0
 23 37  1  0
M  END
$$$$

     RDKit          3D

 36 37  0  0  0  0  0  0  0  0999 V2000
    4.0959    0.2887   -0.9832 C   0  0  0  0  0  0  0  0  0  0  0  0
    2.6735   -0.0559   -0.5871 C   0  0  0  0  0  0  0  0  0  0  0  0
    5.0783   -0.8540   -0.7135 C   0  0  0  0  0  0  0  0  0  0  0  0
    4.5714    1.5847   -0.3207 C   0  0  0  0  0  0  0  0  0  0  0  0
    1.6389    0.0710   -1.4472 C   0  0  0  0  0  0  0  0  0  0  0  0
    2.3732   -0.4112    0.8009 C   0  0  0  0  0  0  0  0  0  0  0  0
    0.2750    0.1580   -0.9444 C   0  0  0  0  0  0  0  0  0  0  0  0
    1.1112   -0.3248    1.2626 C   0  0  0  0  0  0  0  0  0  0  0  0
    0.0479    0.1361    0.3807 C   0  0  0  0  0  0  0  0  0  0  0  0
   -0.9310    0.9334    0.9293 N   0  0  0  0  0  0  0  0  0  0  0  0
   -2.0359    0.3476    1.5060 C   0  0  0  0  0  0  0  0  0  0  0  0
   -3.1781    0.1864    0.5688 C   0  0  0  0  0  0  0  0  0  0  0  0
   -2.1120    0.0805    2.6989 O   0  0  0  0  0  0  0  0  0  0  0  0
   -4.0931    1.1774    0.6215 C   0  0  0  0  0  0  0  0  0  0  0  0
   -3.5922   -1.1394    0.1324 C   0  0  0  0  0  0  0  0  0  0  0  0
   -5.5091    0.8428    0.6406 C   0  0  0  0  0  0  0  0  0  0  0  0
   -4.9068   -1.4403    0.0515 C   0  0  0  0  0  0  0  0  0  0  0  0
   -2.5742   -2.0038   -0.1974 O   0  0  0  0  0  0  0  0  0  0  0  0
   -6.7235    2.2068    1.0089 Br  0  0  0  0  0  0  0  0  0  0  0  0
   -5.8982   -0.4168    0.3655 C   0  0  0  0  0  0  0  0  0  0  0  0
   -5.5318   -3.1149   -0.4850 Br  0  0  0  0  0  0  0  0  0  0  0  0
    4.1179    0.4647   -2.0688 H   0  0  0  0  0  0  0  0  0  0  0  0
    4.6725   -1.8155   -1.0478 H   0  0  0  0  0  0  0  0  0  0  0  0
    5.3297   -0.9349    0.3477 H   0  0  0  0  0  0  0  0  0  0  0  0
    6.0098   -0.6848   -1.2629 H   0  0  0  0  0  0  0  0  0  0  0  0
    3.9285    2.4254   -0.6064 H   0  0  0  0  0  0  0  0  0  0  0  0
    4.5770    1.5140    0.7709 H   0  0  0  0  0  0  0  0  0  0  0  0
    5.5900    1.8278   -0.6445 H   0  0  0  0  0  0  0  0  0  0  0  0
    1.7751   -0.0202   -2.5203 H   0  0  0  0  0  0  0  0  0  0  0  0
    3.1702   -0.7709    1.4428 H   0  0  0  0  0  0  0  0  0  0  0  0
   -0.5393    0.0451   -1.6522 H   0  0  0  0  0  0  0  0  0  0  0  0
    0.8564   -0.6160    2.2760 H   0  0  0  0  0  0  0  0  0  0  0  0
   -0.5472    1.6464    1.5390 H   0  0  0  0  0  0  0  0  0  0  0  0
   -3.7938    2.2192    0.5992 H   0  0  0  0  0  0  0  0  0  0  0  0
   -2.9781   -2.8628   -0.4168 H   0  0  0  0  0  0  0  0  0  0  0  0
   -6.9480   -0.6897    0.3635 H   0  0  0  0  0  0  0  0  0  0  0  0
  1  2  1  0
  1  3  1  0
  1  4  1  0
  5  2  2  0
  2  6  1  0
  7  5  1  0
  6  8  2  0
  9  7  2  0
  8  9  1  0
 10  9  1  0
 11 10  1  0
 11 12  1  0
 11 13  2  0
 12 14  2  0
 15 12  1  0
 14 16  1  0
 17 15  2  0
 15 18  1  0
 16 19  1  0
 16 20  2  0
 20 17  1  0
 17 21  1  0
  1 22  1  0
  3 23  1  0
  3 24  1  0
  3 25  1  0
  4 26  1  0
  4 27  1  0
  4 28  1  0
  5 29  1  0
  6 30  1  0
  7 31  1  0
  8 32  1  0
 10 33  1  0
 14 34  1  0
 18 35  1  0
 20 36  1  0
M  END
$$$$

     RDKit          3D

 31 32  0  0  0  0  0  0  0  0999 V2000
    4.2664   -0.5553    2.0995 O   0  0  0  0  0  0  0  0  0  0  0  0
    3.1192   -0.3663    1.3627 C   0  0  0  0  0  0  0  0  0  0  0  0
    5.1920   -1.3606    1.3688 C   0  0  0  0  0  0  0  0  0  0  0  0
    2.0040   -1.0885    1.5756 C   0  0  0  0  0  0  0  0  0  0  0  0
    3.0384    0.8962    0.6442 C   0  0  0  0  0  0  0  0  0  0  0  0
    0.7340   -0.6438    1.0248 C   0  0  0  0  0  0  0  0  0  0  0  0
    1.8505    1.3394    0.1924 C   0  0  0  0  0  0  0  0  0  0  0  0
    0.6402    0.5623    0.4332 C   0  0  0  0  0  0  0  0  0  0  0  0
   -0.5732    1.2086    0.3589 N   0  0  0  0  0  0  0  0  0  0  0  0
   -1.1193    1.5226   -0.8638 C   0  0  0  0  0  0  0  0  0  0  0  0
   -2.2199    0.6329   -1.3083 C   0  0  0  0  0  0  0  0  0  0  0  0
   -0.8443    2.5329   -1.5045 O   0  0  0  0  0  0  0  0  0  0  0  0
   -1.9872   -0.6865   -1.4466 C   0  0  0  0  0  0  0  0  0  0  0  0
   -3.5973    1.1158   -1.2872 C   0  0  0  0  0  0  0  0  0  0  0  0
   -3.0291   -1.6244   -1.0531 C   0  0  0  0  0  0  0  0  0  0  0  0
   -4.6007    0.2420   -1.0522 C   0  0  0  0  0  0  0  0  0  0  0  0
   -3.8055    2.4560   -1.5453 O   0  0  0  0  0  0  0  0  0  0  0  0
   -2.5647   -3.4176   -0.8644 Br  0  0  0  0  0  0  0  0  0  0  0  0
   -4.2856   -1.1735   -0.8646 C   0  0  0  0  0  0  0  0  0  0  0  0
   -6.4013    0.7311   -0.9889 Br  0  0  0  0  0  0  0  0  0  0  0  0
    5.5062   -0.8594    0.4462 H   0  0  0  0  0  0  0  0  0  0  0  0
    4.7645   -2.3428    1.1341 H   0  0  0  0  0  0  0  0  0  0  0  0
    6.0765   -1.5078    1.9953 H   0  0  0  0  0  0  0  0  0  0  0  0
    2.0182   -1.9821    2.1884 H   0  0  0  0  0  0  0  0  0  0  0  0
    3.9503    1.4585    0.4773 H   0  0  0  0  0  0  0  0  0  0  0  0
   -0.1240   -1.3030    1.1302 H   0  0  0  0  0  0  0  0  0  0  0  0
    1.7778    2.2719   -0.3592 H   0  0  0  0  0  0  0  0  0  0  0  0
   -0.6572    1.9768    1.0188 H   0  0  0  0  0  0  0  0  0  0  0  0
   -1.0817   -1.0561   -1.9172 H   0  0  0  0  0  0  0  0  0  0  0  0
   -2.9587    2.8687   -1.8114 H   0  0  0  0  0  0  0  0  0  0  0  0
   -5.0886   -1.8481   -0.5837 H   0  0  0  0  0  0  0  0  0  0  0  0
  1  2  1  0
  1  3  1  0
  4  2  2  0
  2  5  1  0
  6  4  1  0
  5  7  2  0
  8  6  2  0
  7  8  1  0
  9  8  1  0
 10  9  1  0
 10 11  1  0
 10 12  2  0
 11 13  2  0
 14 11  1  0
 13 15  1  0
 16 14  2  0
 14 17  1  0
 15 18  1  0
 15 19  2  0
 19 16  1  0
 16 20  1  0
  3 21  1  0
  3 22  1  0
  3 23  1  0
  4 24  1  0
  5 25  1  0
  6 26  1  0
  7 27  1  0
  9 28  1  0
 13 29  1  0
 17 30  1  0
 19 31  1  0
M  END
$$$$

     RDKit          3D

 30 31  0  0  0  0  0  0  0  0999 V2000
    0.5637    1.4068   -0.3278 C   0  0  0  0  0  0  0  0  0  0  0  0
    1.9416    1.3067    0.2103 C   0  0  0  0  0  0  0  0  0  0  0  0
    0.2092    0.3968   -1.1768 N   0  0  0  0  0  0  0  0  0  0  0  0
   -0.1593    2.3713   -0.1022 O   0  0  0  0  0  0  0  0  0  0  0  0
   -0.3649   -0.7053   -0.6001 C   0  0  0  0  0  0  0  0  0  0  0  0
   -1.7982   -0.5172   -0.2482 C   0  0  0  0  0  0  0  0  0  0  0  0
    0.2107   -1.7751   -0.4346 O   0  0  0  0  0  0  0  0  0  0  0  0
   -2.1401   -0.7072    1.0410 C   0  0  0  0  0  0  0  0  0  0  0  0
   -2.8253   -0.5425   -1.2781 C   0  0  0  0  0  0  0  0  0  0  0  0
   -3.4388   -1.2819    1.3573 C   0  0  0  0  0  0  0  0  0  0  0  0
   -4.0637   -0.9914   -0.9794 C   0  0  0  0  0  0  0  0  0  0  0  0
   -2.4421   -0.0567   -2.5106 O   0  0  0  0  0  0  0  0  0  0  0  0
   -3.7673   -1.7765    3.1229 Br  0  0  0  0  0  0  0  0  0  0  0  0
   -4.3608   -1.4184    0.3839 C   0  0  0  0  0  0  0  0  0  0  0  0
   -5.4450   -1.0632   -2.2322 Br  0  0  0  0  0  0  0  0  0  0  0  0
    2.9137    1.8844   -0.5242 C   0  0  0  0  0  0  0  0  0  0  0  0
    2.2939    0.3559    1.2519 C   0  0  0  0  0  0  0  0  0  0  0  0
    4.2560    1.3081   -0.5241 C   0  0  0  0  0  0  0  0  0  0  0  0
    3.5499   -0.1227    1.3199 C   0  0  0  0  0  0  0  0  0  0  0  0
    1.2922    0.0063    2.1228 O   0  0  0  0  0  0  0  0  0  0  0  0
    5.6754    1.9992   -1.8483 I   0  0  0  0  0  0  0  0  0  0  0  0
    4.5519    0.3404    0.3689 C   0  0  0  0  0  0  0  0  0  0  0  0
   -0.3844    0.7578   -1.9151 H   0  0  0  0  0  0  0  0  0  0  0  0
   -1.4846   -0.3920    1.8474 H   0  0  0  0  0  0  0  0  0  0  0  0
   -3.2188   -0.1309   -3.0989 H   0  0  0  0  0  0  0  0  0  0  0  0
   -5.3391   -1.8377    0.5963 H   0  0  0  0  0  0  0  0  0  0  0  0
    2.7489    2.8378   -1.0164 H   0  0  0  0  0  0  0  0  0  0  0  0
    3.8613   -0.8355    2.0745 H   0  0  0  0  0  0  0  0  0  0  0  0
    1.6279   -0.7022    2.6982 H   0  0  0  0  0  0  0  0  0  0  0  0
    5.5358   -0.1149    0.4217 H   0  0  0  0  0  0  0  0  0  0  0  0
  1  2  1  0
  1  3  1  0
  1  4  2  0
  5  3  1  0
  5  6  1  0
  5  7  2  0
  6  8  2  0
  9  6  1  0
  8 10  1  0
 11  9  2  0
  9 12  1  0
 10 13  1  0
 10 14  2  0
 14 11  1  0
 11 15  1  0
  2 16  2  0
 17  2  1  0
 16 18  1  0
 19 17  2  0
 17 20  1  0
 18 21  1  0
 18 22  2  0
 22 19  1  0
  3 23  1  0
  8 24  1  0
 12 25  1  0
 14 26  1  0
 16 27  1  0
 19 28  1  0
 20 29  1  0
 22 30  1  0
M  END
$$$$

     RDKit          3D

 29 30  0  0  0  0  0  0  0  0999 V2000
    0.7737   -2.2726   -0.6499 C   0  0  0  0  0  0  0  0  0  0  0  0
    1.8428   -1.3634   -0.1589 C   0  0  0  0  0  0  0  0  0  0  0  0
   -0.0599   -1.7061   -1.5774 N   0  0  0  0  0  0  0  0  0  0  0  0
    0.7206   -3.4492   -0.3143 O   0  0  0  0  0  0  0  0  0  0  0  0
   -1.3054   -1.3213   -1.1622 C   0  0  0  0  0  0  0  0  0  0  0  0
   -1.3381   -0.0747   -0.3542 C   0  0  0  0  0  0  0  0  0  0  0  0
   -2.3281   -1.8830   -1.5384 O   0  0  0  0  0  0  0  0  0  0  0  0
   -1.3485    1.0802   -1.0506 C   0  0  0  0  0  0  0  0  0  0  0  0
   -1.8600   -0.0957    1.0052 C   0  0  0  0  0  0  0  0  0  0  0  0
   -2.1640    2.1925   -0.5860 C   0  0  0  0  0  0  0  0  0  0  0  0
   -2.5565    0.9609    1.4767 C   0  0  0  0  0  0  0  0  0  0  0  0
   -1.5675   -1.2241    1.7356 O   0  0  0  0  0  0  0  0  0  0  0  0
   -2.3334    3.6752   -1.7008 Br  0  0  0  0  0  0  0  0  0  0  0  0
   -2.7465    2.1307    0.6272 C   0  0  0  0  0  0  0  0  0  0  0  0
   -3.2595    1.0220    3.2044 Br  0  0  0  0  0  0  0  0  0  0  0  0
    1.7015   -0.9128    1.1041 C   0  0  0  0  0  0  0  0  0  0  0  0
    2.7613   -0.6744   -1.0635 C   0  0  0  0  0  0  0  0  0  0  0  0
    2.0605    0.4615    1.4098 C   0  0  0  0  0  0  0  0  0  0  0  0
    3.1900    0.5618   -0.7343 C   0  0  0  0  0  0  0  0  0  0  0  0
    3.3587   -1.5430   -2.6025 Br  0  0  0  0  0  0  0  0  0  0  0  0
    2.7713    1.1749    0.5182 C   0  0  0  0  0  0  0  0  0  0  0  0
   -0.1968   -2.3846   -2.3177 H   0  0  0  0  0  0  0  0  0  0  0  0
   -0.7296    1.2122   -1.9328 H   0  0  0  0  0  0  0  0  0  0  0  0
   -2.0539   -1.1638    2.5793 H   0  0  0  0  0  0  0  0  0  0  0  0
   -3.3545    2.9495    0.9989 H   0  0  0  0  0  0  0  0  0  0  0  0
    1.3192   -1.5477    1.8985 H   0  0  0  0  0  0  0  0  0  0  0  0
    1.7540    0.8802    2.3629 H   0  0  0  0  0  0  0  0  0  0  0  0
    3.8826    1.1151   -1.3605 H   0  0  0  0  0  0  0  0  0  0  0  0
    3.0663    2.1999    0.7186 H   0  0  0  0  0  0  0  0  0  0  0  0
  1  2  1  0
  1  3  1  0
  1  4  2  0
  5  3  1  0
  5  6  1  0
  5  7  2  0
  6  8  2  0
  9  6  1  0
  8 10  1  0
 11  9  2  0
  9 12  1  0
 10 13  1  0
 10 14  2  0
 14 11  1  0
 11 15  1  0
  2 16  2  0
 17  2  1  0
 16 18  1  0
 19 17  2  0
 17 20  1  0
 18 21  2  0
 21 19  1  0
  3 22  1  0
  8 23  1  0
 12 24  1  0
 14 25  1  0
 16 26  1  0
 18 27  1  0
 19 28  1  0
 21 29  1  0
M  END
$$$$

     RDKit          3D

 32 33  0  0  0  0  0  0  0  0999 V2000
   -0.6923    0.8931    0.9353 C   0  0  0  0  0  0  0  0  0  0  0  0
   -2.0010    0.4339    0.3999 C   0  0  0  0  0  0  0  0  0  0  0  0
    0.3889    0.3998    0.2533 N   0  0  0  0  0  0  0  0  0  0  0  0
   -0.6218    1.6684    1.8814 O   0  0  0  0  0  0  0  0  0  0  0  0
    1.1641   -0.4558    0.9750 C   0  0  0  0  0  0  0  0  0  0  0  0
    2.5160    0.0510    1.3239 C   0  0  0  0  0  0  0  0  0  0  0  0
    0.8606   -1.6218    1.2140 O   0  0  0  0  0  0  0  0  0  0  0  0
    2.6459    1.2454    1.9335 C   0  0  0  0  0  0  0  0  0  0  0  0
    3.7006   -0.6064    0.7759 C   0  0  0  0  0  0  0  0  0  0  0  0
    3.8221    2.0563    1.6581 C   0  0  0  0  0  0  0  0  0  0  0  0
    4.8365    0.1046    0.6065 C   0  0  0  0  0  0  0  0  0  0  0  0
    3.6056   -1.9533    0.4842 O   0  0  0  0  0  0  0  0  0  0  0  0
    3.8235    3.8232    2.2458 Br  0  0  0  0  0  0  0  0  0  0  0  0
    4.8712    1.5060    1.0167 C   0  0  0  0  0  0  0  0  0  0  0  0
    6.4109   -0.6149   -0.0946 Br  0  0  0  0  0  0  0  0  0  0  0  0
   -2.5791    1.2052   -0.5404 C   0  0  0  0  0  0  0  0  0  0  0  0
   -2.4320   -0.9456    0.5650 C   0  0  0  0  0  0  0  0  0  0  0  0
   -3.3661    0.5786   -1.5905 C   0  0  0  0  0  0  0  0  0  0  0  0
   -3.2276   -1.5088   -0.3620 C   0  0  0  0  0  0  0  0  0  0  0  0
   -3.6839   -0.7304   -1.5123 C   0  0  0  0  0  0  0  0  0  0  0  0
   -4.5084   -1.4412   -2.5409 C   0  0  0  0  0  0  0  0  0  0  0  0
    0.1250   -0.0324   -0.6237 H   0  0  0  0  0  0  0  0  0  0  0  0
    1.9206    1.5935    2.6639 H   0  0  0  0  0  0  0  0  0  0  0  0
    2.7628   -2.3019    0.8415 H   0  0  0  0  0  0  0  0  0  0  0  0
    5.7665    2.0836    0.8091 H   0  0  0  0  0  0  0  0  0  0  0  0
   -2.5772    2.2887   -0.4695 H   0  0  0  0  0  0  0  0  0  0  0  0
   -2.0956   -1.4968    1.4377 H   0  0  0  0  0  0  0  0  0  0  0  0
   -3.7045    1.2025   -2.4120 H   0  0  0  0  0  0  0  0  0  0  0  0
   -3.5595   -2.5377   -0.2583 H   0  0  0  0  0  0  0  0  0  0  0  0
   -5.4198   -1.8478   -2.0898 H   0  0  0  0  0  0  0  0  0  0  0  0
   -4.8104   -0.7722   -3.3535 H   0  0  0  0  0  0  0  0  0  0  0  0
   -3.9417   -2.2670   -2.9842 H   0  0  0  0  0  0  0  0  0  0  0  0
  1  2  1  0
  1  3  1  0
  1  4  2  0
  5  3  1  0
  5  6  1  0
  5  7  2  0
  6  8  2  0
  9  6  1  0
  8 10  1  0
 11  9  2  0
  9 12  1  0
 10 13  1  0
 10 14  2  0
 14 11  1  0
 11 15  1  0
  2 16  2  0
 17  2  1  0
 16 18  1  0
 19 17  2  0
 18 20  2  0
 20 19  1  0
 20 21  1  0
  3 22  1  0
  8 23  1  0
 12 24  1  0
 14 25  1  0
 16 26  1  0
 17 27  1  0
 18 28  1  0
 19 29  1  0
 21 30  1  0
 21 31  1  0
 21 32  1  0
M  END
$$$$

     RDKit          3D

 29 30  0  0  0  0  0  0  0  0999 V2000
   -1.2423   -0.1025   -1.0805 C   0  0  0  0  0  0  0  0  0  0  0  0
   -1.5806    1.0921   -0.2686 C   0  0  0  0  0  0  0  0  0  0  0  0
   -0.0751    0.0721   -1.7812 N   0  0  0  0  0  0  0  0  0  0  0  0
   -1.9489   -1.1004   -1.1065 O   0  0  0  0  0  0  0  0  0  0  0  0
    0.6751   -1.0371   -2.0500 C   0  0  0  0  0  0  0  0  0  0  0  0
    1.5122   -1.5475   -0.9371 C   0  0  0  0  0  0  0  0  0  0  0  0
    0.8119   -1.4888   -3.1833 O   0  0  0  0  0  0  0  0  0  0  0  0
    0.9221   -2.1531    0.1109 C   0  0  0  0  0  0  0  0  0  0  0  0
    2.9263   -1.1987   -0.8614 C   0  0  0  0  0  0  0  0  0  0  0  0
    1.5226   -2.0156    1.4289 C   0  0  0  0  0  0  0  0  0  0  0  0
    3.5357   -1.1679    0.3437 C   0  0  0  0  0  0  0  0  0  0  0  0
    3.5868   -0.9544   -2.0482 O   0  0  0  0  0  0  0  0  0  0  0  0
    0.5167   -2.5378    2.9059 Br  0  0  0  0  0  0  0  0  0  0  0  0
    2.7768   -1.5355    1.5377 C   0  0  0  0  0  0  0  0  0  0  0  0
    5.3340   -0.7254    0.5818 Br  0  0  0  0  0  0  0  0  0  0  0  0
   -1.3540    1.0069    1.0584 C   0  0  0  0  0  0  0  0  0  0  0  0
   -2.4874    2.1129   -0.7792 C   0  0  0  0  0  0  0  0  0  0  0  0
   -2.2240    1.7171    1.9820 C   0  0  0  0  0  0  0  0  0  0  0  0
   -3.2371    2.8295    0.0797 C   0  0  0  0  0  0  0  0  0  0  0  0
   -2.5430    2.4353   -2.4721 Cl  0  0  0  0  0  0  0  0  0  0  0  0
   -3.1312    2.5911    1.5108 C   0  0  0  0  0  0  0  0  0  0  0  0
   -0.2820    0.5182   -2.6678 H   0  0  0  0  0  0  0  0  0  0  0  0
    0.0511   -2.7901   -0.0188 H   0  0  0  0  0  0  0  0  0  0  0  0
    3.0436   -1.2825   -2.7928 H   0  0  0  0  0  0  0  0  0  0  0  0
    3.2559   -1.4309    2.5064 H   0  0  0  0  0  0  0  0  0  0  0  0
   -0.5370    0.4262    1.4718 H   0  0  0  0  0  0  0  0  0  0  0  0
   -2.1200    1.5254    3.0455 H   0  0  0  0  0  0  0  0  0  0  0  0
   -3.9162    3.6052   -0.2588 H   0  0  0  0  0  0  0  0  0  0  0  0
   -3.7919    3.1364    2.1773 H   0  0  0  0  0  0  0  0  0  0  0  0
  1  2  1  0
  1  3  1  0
  1  4  2  0
  5  3  1  0
  5  6  1  0
  5  7  2  0
  6  8  2  0
  9  6  1  0
  8 10  1  0
 11  9  2  0
  9 12  1  0
 10 13  1  0
 10 14  2  0
 14 11  1  0
 11 15  1  0
  2 16  2  0
 17  2  1  0
 16 18  1  0
 19 17  2  0
 17 20  1  0
 18 21  2  0
 21 19  1  0
  3 22  1  0
  8 23  1  0
 12 24  1  0
 14 25  1  0
 16 26  1  0
 18 27  1  0
 19 28  1  0
 21 29  1  0
M  END
$$$$

     RDKit          3D

 29 30  0  0  0  0  0  0  0  0999 V2000
    0.9058    0.3124   -1.5283 C   0  0  0  0  0  0  0  0  0  0  0  0
    2.2671   -0.1565   -1.1641 C   0  0  0  0  0  0  0  0  0  0  0  0
    0.2817    1.0700   -0.5746 N   0  0  0  0  0  0  0  0  0  0  0  0
    0.4241    0.0692   -2.6289 O   0  0  0  0  0  0  0  0  0  0  0  0
   -0.4990    0.3875    0.3116 C   0  0  0  0  0  0  0  0  0  0  0  0
   -1.9230    0.3022   -0.0902 C   0  0  0  0  0  0  0  0  0  0  0  0
   -0.0724   -0.0667    1.3664 O   0  0  0  0  0  0  0  0  0  0  0  0
   -2.3275   -0.8840   -0.5870 C   0  0  0  0  0  0  0  0  0  0  0  0
   -2.9036    1.2120    0.4832 C   0  0  0  0  0  0  0  0  0  0  0  0
   -3.6414   -1.3983   -0.2311 C   0  0  0  0  0  0  0  0  0  0  0  0
   -4.1572    0.7763    0.7354 C   0  0  0  0  0  0  0  0  0  0  0  0
   -2.4627    2.4967    0.7126 O   0  0  0  0  0  0  0  0  0  0  0  0
   -4.0533   -3.1499   -0.7124 Br  0  0  0  0  0  0  0  0  0  0  0  0
   -4.5195   -0.5972    0.4033 C   0  0  0  0  0  0  0  0  0  0  0  0
   -5.4797    1.8665    1.4747 Br  0  0  0  0  0  0  0  0  0  0  0  0
    3.2736    0.7309   -1.2998 C   0  0  0  0  0  0  0  0  0  0  0  0
    2.4842   -1.3790   -0.4021 C   0  0  0  0  0  0  0  0  0  0  0  0
    4.3942    0.6724   -0.3727 C   0  0  0  0  0  0  0  0  0  0  0  0
    3.5711   -1.4833    0.3865 C   0  0  0  0  0  0  0  0  0  0  0  0
    1.3824   -2.6943   -0.5582 Cl  0  0  0  0  0  0  0  0  0  0  0  0
    4.5324   -0.3928    0.4390 C   0  0  0  0  0  0  0  0  0  0  0  0
    5.8571   -0.5159    1.5292 Cl  0  0  0  0  0  0  0  0  0  0  0  0
    0.9041    1.6886   -0.0736 H   0  0  0  0  0  0  0  0  0  0  0  0
   -1.7336   -1.4175   -1.3239 H   0  0  0  0  0  0  0  0  0  0  0  0
   -3.2104    2.9935    1.0954 H   0  0  0  0  0  0  0  0  0  0  0  0
   -5.5092   -0.9536    0.6710 H   0  0  0  0  0  0  0  0  0  0  0  0
    3.3343    1.4039   -2.1502 H   0  0  0  0  0  0  0  0  0  0  0  0
    5.1114    1.4871   -0.3770 H   0  0  0  0  0  0  0  0  0  0  0  0
    3.7691   -2.3802    0.9641 H   0  0  0  0  0  0  0  0  0  0  0  0
  1  2  1  0
  1  3  1  0
  1  4  2  0
  5  3  1  0
  5  6  1  0
  5  7  2  0
  6  8  2  0
  9  6  1  0
  8 10  1  0
 11  9  2  0
  9 12  1  0
 10 13  1  0
 10 14  2  0
 14 11  1  0
 11 15  1  0
  2 16  2  0
 17  2  1  0
 16 18  1  0
 19 17  2  0
 17 20  1  0
 18 21  2  0
 21 19  1  0
 21 22  1  0
  3 23  1  0
  8 24  1  0
 12 25  1  0
 14 26  1  0
 16 27  1  0
 18 28  1  0
 19 29  1  0
M  END
$$$$

     RDKit          3D

 29 30  0  0  0  0  0  0  0  0999 V2000
    0.4463   -1.8342   -1.7101 C   0  0  0  0  0  0  0  0  0  0  0  0
    1.6214   -1.0141   -1.3230 C   0  0  0  0  0  0  0  0  0  0  0  0
   -0.7548   -1.3988   -1.2236 N   0  0  0  0  0  0  0  0  0  0  0  0
    0.5416   -2.7858   -2.4754 O   0  0  0  0  0  0  0  0  0  0  0  0
   -0.9690   -1.5441    0.1195 C   0  0  0  0  0  0  0  0  0  0  0  0
   -1.4826   -0.3197    0.7797 C   0  0  0  0  0  0  0  0  0  0  0  0
   -0.8779   -2.5914    0.7478 O   0  0  0  0  0  0  0  0  0  0  0  0
   -0.6666    0.7470    0.8762 C   0  0  0  0  0  0  0  0  0  0  0  0
   -2.9185   -0.1382    0.9540 C   0  0  0  0  0  0  0  0  0  0  0  0
   -1.2171    2.0715    0.6329 C   0  0  0  0  0  0  0  0  0  0  0  0
   -3.4446    1.1019    0.8517 C   0  0  0  0  0  0  0  0  0  0  0  0
   -3.6680   -1.2588    1.2447 O   0  0  0  0  0  0  0  0  0  0  0  0
   -0.0241    3.4795    0.3907 Br  0  0  0  0  0  0  0  0  0  0  0  0
   -2.5542    2.2383    0.6192 C   0  0  0  0  0  0  0  0  0  0  0  0
   -5.2657    1.4701    1.0334 Br  0  0  0  0  0  0  0  0  0  0  0  0
    1.8430    0.1430   -1.9768 C   0  0  0  0  0  0  0  0  0  0  0  0
    2.4287   -1.3632   -0.1625 C   0  0  0  0  0  0  0  0  0  0  0  0
    2.6861    1.1582   -1.3615 C   0  0  0  0  0  0  0  0  0  0  0  0
    3.2634   -0.4484    0.3660 C   0  0  0  0  0  0  0  0  0  0  0  0
    3.3671    0.8717   -0.2365 C   0  0  0  0  0  0  0  0  0  0  0  0
    4.3751    2.0424    0.5190 Cl  0  0  0  0  0  0  0  0  0  0  0  0
   -1.4763   -1.8947   -1.7337 H   0  0  0  0  0  0  0  0  0  0  0  0
    0.3442    0.6545    1.2600 H   0  0  0  0  0  0  0  0  0  0  0  0
   -3.0733   -1.9918    1.4995 H   0  0  0  0  0  0  0  0  0  0  0  0
   -2.9962    3.2161    0.4543 H   0  0  0  0  0  0  0  0  0  0  0  0
    1.4950    0.3070   -2.9919 H   0  0  0  0  0  0  0  0  0  0  0  0
    2.3431   -2.3640    0.2509 H   0  0  0  0  0  0  0  0  0  0  0  0
    2.7543    2.1292   -1.8413 H   0  0  0  0  0  0  0  0  0  0  0  0
    3.8794   -0.6834    1.2279 H   0  0  0  0  0  0  0  0  0  0  0  0
  1  2  1  0
  1  3  1  0
  1  4  2  0
  5  3  1  0
  5  6  1  0
  5  7  2  0
  6  8  2  0
  9  6  1  0
  8 10  1  0
 11  9  2  0
  9 12  1  0
 10 13  1  0
 10 14  2  0
 14 11  1  0
 11 15  1  0
  2 16  2  0
 17  2  1  0
 16 18  1  0
 19 17  2  0
 18 20  2  0
 20 19  1  0
 20 21  1  0
  3 22  1  0
  8 23  1  0
 12 24  1  0
 14 25  1  0
 16 26  1  0
 17 27  1  0
 18 28  1  0
 19 29  1  0
M  END
$$$$

     RDKit          3D

 30 31  0  0  0  0  0  0  0  0999 V2000
    1.1920   -1.3851   -0.4849 C   0  0  0  0  0  0  0  0  0  0  0  0
    1.5719   -0.4173    0.5828 C   0  0  0  0  0  0  0  0  0  0  0  0
    0.2149   -2.2590   -0.0788 N   0  0  0  0  0  0  0  0  0  0  0  0
    1.8055   -1.4711   -1.5398 O   0  0  0  0  0  0  0  0  0  0  0  0
   -1.0246   -2.2032   -0.6631 C   0  0  0  0  0  0  0  0  0  0  0  0
   -1.7476   -0.9145   -0.5473 C   0  0  0  0  0  0  0  0  0  0  0  0
   -1.5595   -3.2099   -1.1179 O   0  0  0  0  0  0  0  0  0  0  0  0
   -2.3873   -0.6670    0.6144 C   0  0  0  0  0  0  0  0  0  0  0  0
   -1.9721   -0.0615   -1.7063 C   0  0  0  0  0  0  0  0  0  0  0  0
   -3.3183    0.4484    0.7048 C   0  0  0  0  0  0  0  0  0  0  0  0
   -2.8324    0.9761   -1.6237 C   0  0  0  0  0  0  0  0  0  0  0  0
   -1.2404   -0.3724   -2.8297 O   0  0  0  0  0  0  0  0  0  0  0  0
   -4.1707    0.7412    2.3368 Br  0  0  0  0  0  0  0  0  0  0  0  0
   -3.5319    1.2323   -0.3703 C   0  0  0  0  0  0  0  0  0  0  0  0
   -3.1675    2.1343   -3.0492 Br  0  0  0  0  0  0  0  0  0  0  0  0
    2.4461   -0.9014    1.4903 C   0  0  0  0  0  0  0  0  0  0  0  0
    1.5692    1.0171    0.3129 C   0  0  0  0  0  0  0  0  0  0  0  0
    3.6223   -0.1199    1.8448 C   0  0  0  0  0  0  0  0  0  0  0  0
    2.6028    1.7839    0.7238 C   0  0  0  0  0  0  0  0  0  0  0  0
    0.4620    1.5007   -0.3429 O   0  0  0  0  0  0  0  0  0  0  0  0
    4.9578   -0.9532    2.8386 Br  0  0  0  0  0  0  0  0  0  0  0  0
    3.6934    1.1732    1.4753 C   0  0  0  0  0  0  0  0  0  0  0  0
    2.6951    3.6199    0.4017 Br  0  0  0  0  0  0  0  0  0  0  0  0
    0.5520   -3.1984   -0.2488 H   0  0  0  0  0  0  0  0  0  0  0  0
   -2.1618   -1.2341    1.5134 H   0  0  0  0  0  0  0  0  0  0  0  0
   -1.4629    0.2753   -3.5229 H   0  0  0  0  0  0  0  0  0  0  0  0
   -4.2299    2.0631   -0.3207 H   0  0  0  0  0  0  0  0  0  0  0  0
    2.2558   -1.8324    2.0160 H   0  0  0  0  0  0  0  0  0  0  0  0
    0.6140    2.4507   -0.5089 H   0  0  0  0  0  0  0  0  0  0  0  0
    4.5522    1.7843    1.7346 H   0  0  0  0  0  0  0  0  0  0  0  0
  1  2  1  0
  1  3  1  0
  1  4  2  0
  5  3  1  0
  5  6  1  0
  5  7  2  0
  6  8  2  0
  9  6  1  0
  8 10  1  0
 11  9  2  0
  9 12  1  0
 10 13  1  0
 10 14  2  0
 14 11  1  0
 11 15  1  0
  2 16  2  0
 17  2  1  0
 16 18  1  0
 19 17  2  0
 17 20  1  0
 18 21  1  0
 18 22  2  0
 22 19  1  0
 19 23  1  0
  3 24  1  0
  8 25  1  0
 12 26  1  0
 14 27  1  0
 16 28  1  0
 20 29  1  0
 22 30  1  0
M  END
$$$$

     RDKit          3D

 29 30  0  0  0  0  0  0  0  0999 V2000
    0.6010   -1.3462    2.0850 C   0  0  0  0  0  0  0  0  0  0  0  0
    1.4439   -1.4886    0.8677 C   0  0  0  0  0  0  0  0  0  0  0  0
    0.3228   -0.0465    2.4145 N   0  0  0  0  0  0  0  0  0  0  0  0
    0.2957   -2.3055    2.7816 O   0  0  0  0  0  0  0  0  0  0  0  0
   -0.9011    0.4476    2.0530 C   0  0  0  0  0  0  0  0  0  0  0  0
   -1.0414    0.7901    0.6125 C   0  0  0  0  0  0  0  0  0  0  0  0
   -1.7694    0.7152    2.8764 O   0  0  0  0  0  0  0  0  0  0  0  0
   -0.5661    2.0001    0.2543 C   0  0  0  0  0  0  0  0  0  0  0  0
   -2.0972    0.1780   -0.1826 C   0  0  0  0  0  0  0  0  0  0  0  0
   -1.3428    2.8370   -0.6491 C   0  0  0  0  0  0  0  0  0  0  0  0
   -2.7714    0.9169   -1.0906 C   0  0  0  0  0  0  0  0  0  0  0  0
   -2.3160   -1.1601    0.0496 O   0  0  0  0  0  0  0  0  0  0  0  0
   -0.7929    4.5999   -0.8950 Br  0  0  0  0  0  0  0  0  0  0  0  0
   -2.4045    2.3139   -1.2923 C   0  0  0  0  0  0  0  0  0  0  0  0
   -4.1401    0.2206   -2.1510 Br  0  0  0  0  0  0  0  0  0  0  0  0
    0.8823   -2.0341   -0.2279 C   0  0  0  0  0  0  0  0  0  0  0  0
    2.7564   -0.8646    0.7698 C   0  0  0  0  0  0  0  0  0  0  0  0
    1.4318   -1.7311   -1.5409 C   0  0  0  0  0  0  0  0  0  0  0  0
    3.3026   -0.6490   -0.4421 C   0  0  0  0  0  0  0  0  0  0  0  0
    2.5961   -1.0616   -1.6492 C   0  0  0  0  0  0  0  0  0  0  0  0
    3.3604   -0.6458   -3.2967 Br  0  0  0  0  0  0  0  0  0  0  0  0
    0.3710    0.0241    3.4243 H   0  0  0  0  0  0  0  0  0  0  0  0
    0.4136    2.3395    0.5764 H   0  0  0  0  0  0  0  0  0  0  0  0
   -3.0899   -1.4256   -0.4820 H   0  0  0  0  0  0  0  0  0  0  0  0
   -2.9968    2.9134   -1.9774 H   0  0  0  0  0  0  0  0  0  0  0  0
    0.0138   -2.6845   -0.1673 H   0  0  0  0  0  0  0  0  0  0  0  0
    3.2757   -0.5908    1.6822 H   0  0  0  0  0  0  0  0  0  0  0  0
    0.8795   -2.0698   -2.4114 H   0  0  0  0  0  0  0  0  0  0  0  0
    4.2832   -0.1924   -0.5342 H   0  0  0  0  0  0  0  0  0  0  0  0
  1  2  1  0
  1  3  1  0
  1  4  2  0
  5  3  1  0
  5  6  1  0
  5  7  2  0
  6  8  2  0
  9  6  1  0
  8 10  1  0
 11  9  2  0
  9 12  1  0
 10 13  1  0
 10 14  2  0
 14 11  1  0
 11 15  1  0
  2 16  2  0
 17  2  1  0
 16 18  1  0
 19 17  2  0
 18 20  2  0
 20 19  1  0
 20 21  1  0
  3 22  1  0
  8 23  1  0
 12 24  1  0
 14 25  1  0
 16 26  1  0
 17 27  1  0
 18 28  1  0
 19 29  1  0
M  END
$$$$

     RDKit          3D

 30 31  0  0  0  0  0  0  0  0999 V2000
   -1.0223   -0.6872   -1.4687 C   0  0  0  0  0  0  0  0  0  0  0  0
   -1.8492   -0.0243   -0.4327 C   0  0  0  0  0  0  0  0  0  0  0  0
   -0.0801    0.1543   -1.9978 N   0  0  0  0  0  0  0  0  0  0  0  0
   -1.1833   -1.8591   -1.7861 O   0  0  0  0  0  0  0  0  0  0  0  0
    1.2012   -0.3095   -2.0922 C   0  0  0  0  0  0  0  0  0  0  0  0
    1.8727   -0.5572   -0.7919 C   0  0  0  0  0  0  0  0  0  0  0  0
    1.7726   -0.4733   -3.1647 O   0  0  0  0  0  0  0  0  0  0  0  0
    2.0473   -1.8440   -0.4297 C   0  0  0  0  0  0  0  0  0  0  0  0
    2.4418    0.5166    0.0078 C   0  0  0  0  0  0  0  0  0  0  0  0
    2.8279   -2.1633    0.7556 C   0  0  0  0  0  0  0  0  0  0  0  0
    3.1655    0.2224    1.1097 C   0  0  0  0  0  0  0  0  0  0  0  0
    2.1808    1.7971   -0.4258 O   0  0  0  0  0  0  0  0  0  0  0  0
    3.0441   -3.9594    1.2024 Br  0  0  0  0  0  0  0  0  0  0  0  0
    3.3647   -1.1705    1.4907 C   0  0  0  0  0  0  0  0  0  0  0  0
    3.9246    1.5330    2.2019 Br  0  0  0  0  0  0  0  0  0  0  0  0
   -1.6652   -0.4013    0.8487 C   0  0  0  0  0  0  0  0  0  0  0  0
   -2.8121    1.0194   -0.7580 C   0  0  0  0  0  0  0  0  0  0  0  0
   -2.3872    0.2805    1.9111 C   0  0  0  0  0  0  0  0  0  0  0  0
   -3.4925    1.6363    0.2270 C   0  0  0  0  0  0  0  0  0  0  0  0
   -2.9597    1.3224   -2.0904 O   0  0  0  0  0  0  0  0  0  0  0  0
   -3.2656    1.2545    1.6123 C   0  0  0  0  0  0  0  0  0  0  0  0
   -0.3802    0.4665   -2.9119 H   0  0  0  0  0  0  0  0  0  0  0  0
    1.6401   -2.6560   -1.0278 H   0  0  0  0  0  0  0  0  0  0  0  0
    2.6465    2.4100    0.1733 H   0  0  0  0  0  0  0  0  0  0  0  0
    3.9512   -1.3880    2.3781 H   0  0  0  0  0  0  0  0  0  0  0  0
   -1.0766   -1.2753    1.1102 H   0  0  0  0  0  0  0  0  0  0  0  0
   -2.2094   -0.0266    2.9366 H   0  0  0  0  0  0  0  0  0  0  0  0
   -4.2135    2.4225    0.0330 H   0  0  0  0  0  0  0  0  0  0  0  0
   -3.6631    1.9898   -2.1724 H   0  0  0  0  0  0  0  0  0  0  0  0
   -3.8210    1.7697    2.3892 H   0  0  0  0  0  0  0  0  0  0  0  0
  1  2  1  0
  1  3  1  0
  1  4  2  0
  5  3  1  0
  5  6  1  0
  5  7  2  0
  6  8  2  0
  9  6  1  0
  8 10  1  0
 11  9  2  0
  9 12  1  0
 10 13  1  0
 10 14  2  0
 14 11  1  0
 11 15  1  0
  2 16  2  0
 17  2  1  0
 16 18  1  0
 19 17  2  0
 17 20  1  0
 18 21  2  0
 21 19  1  0
  3 22  1  0
  8 23  1  0
 12 24  1  0
 14 25  1  0
 16 26  1  0
 18 27  1  0
 19 28  1  0
 20 29  1  0
 21 30  1  0
M  END
$$$$

     RDKit          3D

 29 30  0  0  0  0  0  0  0  0999 V2000
   -0.9387    0.6729   -2.0062 C   0  0  0  0  0  0  0  0  0  0  0  0
   -1.8618   -0.0013   -1.0682 C   0  0  0  0  0  0  0  0  0  0  0  0
    0.3720    0.6910   -1.6177 N   0  0  0  0  0  0  0  0  0  0  0  0
   -1.3155    1.1290   -3.0792 O   0  0  0  0  0  0  0  0  0  0  0  0
    0.7043    1.5606   -0.6164 C   0  0  0  0  0  0  0  0  0  0  0  0
    1.4795    0.9403    0.4849 C   0  0  0  0  0  0  0  0  0  0  0  0
    0.5133    2.7703   -0.6276 O   0  0  0  0  0  0  0  0  0  0  0  0
    0.8718    0.0289    1.2678 C   0  0  0  0  0  0  0  0  0  0  0  0
    2.9348    1.0275    0.4867 C   0  0  0  0  0  0  0  0  0  0  0  0
    1.6216   -1.1479    1.6802 C   0  0  0  0  0  0  0  0  0  0  0  0
    3.6574   -0.0048    0.9737 C   0  0  0  0  0  0  0  0  0  0  0  0
    3.5011    2.1914    0.0099 O   0  0  0  0  0  0  0  0  0  0  0  0
    0.6763   -2.5645    2.4317 Br  0  0  0  0  0  0  0  0  0  0  0  0
    2.9611   -1.1621    1.5340 C   0  0  0  0  0  0  0  0  0  0  0  0
    5.5235   -0.0295    1.0193 Br  0  0  0  0  0  0  0  0  0  0  0  0
   -2.6526    0.7610   -0.2866 C   0  0  0  0  0  0  0  0  0  0  0  0
   -1.8361   -1.4390   -0.8911 C   0  0  0  0  0  0  0  0  0  0  0  0
   -3.3563    0.1497    0.8317 C   0  0  0  0  0  0  0  0  0  0  0  0
   -2.5165   -2.0116    0.1154 C   0  0  0  0  0  0  0  0  0  0  0  0
   -1.1033   -2.1909   -1.7361 F   0  0  0  0  0  0  0  0  0  0  0  0
   -3.2932   -1.1814    1.0226 C   0  0  0  0  0  0  0  0  0  0  0  0
    0.9231    0.8972   -2.4425 H   0  0  0  0  0  0  0  0  0  0  0  0
   -0.1092    0.2112    1.6948 H   0  0  0  0  0  0  0  0  0  0  0  0
    2.8101    2.8774   -0.0799 H   0  0  0  0  0  0  0  0  0  0  0  0
    3.5505   -2.0197    1.8437 H   0  0  0  0  0  0  0  0  0  0  0  0
   -2.8557    1.8030   -0.5189 H   0  0  0  0  0  0  0  0  0  0  0  0
   -3.9429    0.7886    1.4849 H   0  0  0  0  0  0  0  0  0  0  0  0
   -2.4990   -3.0849    0.2641 H   0  0  0  0  0  0  0  0  0  0  0  0
   -3.8196   -1.6625    1.8409 H   0  0  0  0  0  0  0  0  0  0  0  0
  1  2  1  0
  1  3  1  0
  1  4  2  0
  5  3  1  0
  5  6  1  0
  5  7  2  0
  6  8  2  0
  9  6  1  0
  8 10  1  0
 11  9  2  0
  9 12  1  0
 10 13  1  0
 10 14  2  0
 14 11  1  0
 11 15  1  0
  2 16  2  0
 17  2  1  0
 16 18  1  0
 19 17  2  0
 17 20  1  0
 18 21  2  0
 21 19  1  0
  3 22  1  0
  8 23  1  0
 12 24  1  0
 14 25  1  0
 16 26  1  0
 18 27  1  0
 19 28  1  0
 21 29  1  0
M  END
$$$$

     RDKit          3D

 29 30  0  0  0  0  0  0  0  0999 V2000
   -0.8098   -1.7018   -1.2535 C   0  0  0  0  0  0  0  0  0  0  0  0
   -1.6854   -1.3799   -0.0975 C   0  0  0  0  0  0  0  0  0  0  0  0
   -0.4905   -0.6054   -2.0108 N   0  0  0  0  0  0  0  0  0  0  0  0
   -0.5144   -2.8537   -1.5400 O   0  0  0  0  0  0  0  0  0  0  0  0
    0.8196   -0.2101   -2.0044 C   0  0  0  0  0  0  0  0  0  0  0  0
    1.2437    0.5324   -0.7872 C   0  0  0  0  0  0  0  0  0  0  0  0
    1.5545   -0.3416   -2.9771 O   0  0  0  0  0  0  0  0  0  0  0  0
    1.0511    1.8673   -0.8257 C   0  0  0  0  0  0  0  0  0  0  0  0
    2.3033   -0.0069    0.0561 C   0  0  0  0  0  0  0  0  0  0  0  0
    2.1120    2.7566   -0.3715 C   0  0  0  0  0  0  0  0  0  0  0  0
    3.2450    0.8161    0.5681 C   0  0  0  0  0  0  0  0  0  0  0  0
    2.2428   -1.3616    0.2868 O   0  0  0  0  0  0  0  0  0  0  0  0
    1.9269    4.5788   -0.7117 Br  0  0  0  0  0  0  0  0  0  0  0  0
    3.1642    2.2484    0.2996 C   0  0  0  0  0  0  0  0  0  0  0  0
    4.6442    0.2111    1.6471 Br  0  0  0  0  0  0  0  0  0  0  0  0
   -3.0084   -1.2299   -0.3184 C   0  0  0  0  0  0  0  0  0  0  0  0
   -1.1393   -1.1621    1.2370 C   0  0  0  0  0  0  0  0  0  0  0  0
   -3.8181   -0.5405    0.6765 C   0  0  0  0  0  0  0  0  0  0  0  0
   -1.9073   -0.5871    2.1809 C   0  0  0  0  0  0  0  0  0  0  0  0
   -3.2791   -0.2315    1.8684 C   0  0  0  0  0  0  0  0  0  0  0  0
   -4.0103    0.3891    2.8151 F   0  0  0  0  0  0  0  0  0  0  0  0
   -0.7227   -0.8185   -2.9761 H   0  0  0  0  0  0  0  0  0  0  0  0
    0.0973    2.2915   -1.1241 H   0  0  0  0  0  0  0  0  0  0  0  0
    3.0579   -1.6191    0.7562 H   0  0  0  0  0  0  0  0  0  0  0  0
    3.9622    2.8902    0.6591 H   0  0  0  0  0  0  0  0  0  0  0  0
   -3.5140   -1.7348   -1.1371 H   0  0  0  0  0  0  0  0  0  0  0  0
   -0.1250   -1.4873    1.4454 H   0  0  0  0  0  0  0  0  0  0  0  0
   -4.8524   -0.3053    0.4504 H   0  0  0  0  0  0  0  0  0  0  0  0
   -1.5480   -0.4042    3.1884 H   0  0  0  0  0  0  0  0  0  0  0  0
  1  2  1  0
  1  3  1  0
  1  4  2  0
  5  3  1  0
  5  6  1  0
  5  7  2  0
  6  8  2  0
  9  6  1  0
  8 10  1  0
 11  9  2  0
  9 12  1  0
 10 13  1  0
 10 14  2  0
 14 11  1  0
 11 15  1  0
  2 16  2  0
 17  2  1  0
 16 18  1  0
 19 17  2  0
 18 20  2  0
 20 19  1  0
 20 21  1  0
  3 22  1  0
  8 23  1  0
 12 24  1  0
 14 25  1  0
 16 26  1  0
 17 27  1  0
 18 28  1  0
 19 29  1  0
M  END
$$$$

     RDKit          3D

 29 30  0  0  0  0  0  0  0  0999 V2000
    0.7590   -2.3250    0.2107 C   0  0  0  0  0  0  0  0  0  0  0  0
    1.4811   -1.2999    1.0090 C   0  0  0  0  0  0  0  0  0  0  0  0
    0.5949   -1.9800   -1.1047 N   0  0  0  0  0  0  0  0  0  0  0  0
    0.4554   -3.4174    0.6719 O   0  0  0  0  0  0  0  0  0  0  0  0
   -0.6343   -1.5201   -1.4909 C   0  0  0  0  0  0  0  0  0  0  0  0
   -0.9687   -0.1464   -1.0327 C   0  0  0  0  0  0  0  0  0  0  0  0
   -1.3520   -2.1431   -2.2662 O   0  0  0  0  0  0  0  0  0  0  0  0
   -0.4998    0.8602   -1.7979 C   0  0  0  0  0  0  0  0  0  0  0  0
   -2.1397    0.0783   -0.1966 C   0  0  0  0  0  0  0  0  0  0  0  0
   -1.3455    2.0150   -2.0614 C   0  0  0  0  0  0  0  0  0  0  0  0
   -2.8917    1.1862   -0.3732 C   0  0  0  0  0  0  0  0  0  0  0  0
   -2.3819   -0.8844    0.7560 O   0  0  0  0  0  0  0  0  0  0  0  0
   -0.7639    3.2526   -3.3268 Br  0  0  0  0  0  0  0  0  0  0  0  0
   -2.4963    2.1673   -1.3772 C   0  0  0  0  0  0  0  0  0  0  0  0
   -4.4130    1.5519    0.6453 Br  0  0  0  0  0  0  0  0  0  0  0  0
    0.7851   -0.6124    1.9351 C   0  0  0  0  0  0  0  0  0  0  0  0
    2.8316   -0.8776    0.6602 C   0  0  0  0  0  0  0  0  0  0  0  0
    1.2408    0.7094    2.3340 C   0  0  0  0  0  0  0  0  0  0  0  0
    3.2886    0.3116    1.0942 C   0  0  0  0  0  0  0  0  0  0  0  0
    2.4444    1.1530    1.9277 C   0  0  0  0  0  0  0  0  0  0  0  0
    0.7764   -2.8080   -1.6597 H   0  0  0  0  0  0  0  0  0  0  0  0
    0.5215    0.8581   -2.1643 H   0  0  0  0  0  0  0  0  0  0  0  0
   -3.2268   -0.6632    1.1903 H   0  0  0  0  0  0  0  0  0  0  0  0
   -3.1429    3.0223   -1.5508 H   0  0  0  0  0  0  0  0  0  0  0  0
   -0.0784   -1.0408    2.4350 H   0  0  0  0  0  0  0  0  0  0  0  0
    3.4483   -1.5388    0.0608 H   0  0  0  0  0  0  0  0  0  0  0  0
    0.6007    1.3066    2.9746 H   0  0  0  0  0  0  0  0  0  0  0  0
    4.2891    0.6561    0.8560 H   0  0  0  0  0  0  0  0  0  0  0  0
    2.8182    2.1285    2.2224 H   0  0  0  0  0  0  0  0  0  0  0  0
  1  2  1  0
  1  3  1  0
  1  4  2  0
  5  3  1  0
  5  6  1  0
  5  7  2  0
  6  8  2  0
  9  6  1  0
  8 10  1  0
 11  9  2  0
  9 12  1  0
 10 13  1  0
 10 14  2  0
 14 11  1  0
 11 15  1  0
  2 16  2  0
 17  2  1  0
 16 18  1  0
 19 17  2  0
 18 20  2  0
 20 19  1  0
  3 21  1  0
  8 22  1  0
 12 23  1  0
 14 24  1  0
 16 25  1  0
 17 26  1  0
 18 27  1  0
 19 28  1  0
 20 29  1  0
M  END
$$$$

     RDKit          3D

 29 30  0  0  0  0  0  0  0  0999 V2000
    0.8231   -0.7330    2.2656 C   0  0  0  0  0  0  0  0  0  0  0  0
    1.7543   -0.7760    1.1167 C   0  0  0  0  0  0  0  0  0  0  0  0
   -0.4664   -0.4048    1.9532 N   0  0  0  0  0  0  0  0  0  0  0  0
    1.1749   -1.0269    3.4015 O   0  0  0  0  0  0  0  0  0  0  0  0
   -0.7117    0.9058    1.6497 C   0  0  0  0  0  0  0  0  0  0  0  0
   -1.4621    1.0958    0.3852 C   0  0  0  0  0  0  0  0  0  0  0  0
   -0.4560    1.8651    2.3661 O   0  0  0  0  0  0  0  0  0  0  0  0
   -0.8297    0.8310   -0.7737 C   0  0  0  0  0  0  0  0  0  0  0  0
   -2.9182    1.1559    0.4066 C   0  0  0  0  0  0  0  0  0  0  0  0
   -1.5520    0.1128   -1.8128 C   0  0  0  0  0  0  0  0  0  0  0  0
   -3.6163    0.6014   -0.6083 C   0  0  0  0  0  0  0  0  0  0  0  0
   -3.5096    1.8110    1.4661 O   0  0  0  0  0  0  0  0  0  0  0  0
   -0.5707   -0.5830   -3.2329 Br  0  0  0  0  0  0  0  0  0  0  0  0
   -2.8924    0.0015   -1.7284 C   0  0  0  0  0  0  0  0  0  0  0  0
   -5.4809    0.5918   -0.6958 Br  0  0  0  0  0  0  0  0  0  0  0  0
    2.6344    0.2347    0.9626 C   0  0  0  0  0  0  0  0  0  0  0  0
    1.6967   -1.8481    0.1411 C   0  0  0  0  0  0  0  0  0  0  0  0
    3.4416    0.2988   -0.2483 C   0  0  0  0  0  0  0  0  0  0  0  0
    2.4620   -1.8073   -0.9615 C   0  0  0  0  0  0  0  0  0  0  0  0
    0.8467   -2.8739    0.3452 F   0  0  0  0  0  0  0  0  0  0  0  0
    3.3546   -0.6851   -1.1593 C   0  0  0  0  0  0  0  0  0  0  0  0
    4.0977   -0.6501   -2.2817 F   0  0  0  0  0  0  0  0  0  0  0  0
   -1.0439   -0.6853    2.7373 H   0  0  0  0  0  0  0  0  0  0  0  0
    0.1449    1.2531   -0.9970 H   0  0  0  0  0  0  0  0  0  0  0  0
   -2.8356    2.3320    1.9451 H   0  0  0  0  0  0  0  0  0  0  0  0
   -3.4620   -0.5168   -2.4937 H   0  0  0  0  0  0  0  0  0  0  0  0
    2.8280    0.9555    1.7528 H   0  0  0  0  0  0  0  0  0  0  0  0
    4.1185    1.1339   -0.3897 H   0  0  0  0  0  0  0  0  0  0  0  0
    2.4303   -2.5898   -1.7086 H   0  0  0  0  0  0  0  0  0  0  0  0
  1  2  1  0
  1  3  1  0
  1  4  2  0
  5  3  1  0
  5  6  1  0
  5  7  2  0
  6  8  2  0
  9  6  1  0
  8 10  1  0
 11  9  2  0
  9 12  1  0
 10 13  1  0
 10 14  2  0
 14 11  1  0
 11 15  1  0
  2 16  2  0
 17  2  1  0
 16 18  1  0
 19 17  2  0
 17 20  1  0
 18 21  2  0
 21 19  1  0
 21 22  1  0
  3 23  1  0
  8 24  1  0
 12 25  1  0
 14 26  1  0
 16 27  1  0
 18 28  1  0
 19 29  1  0
M  END
$$$$

     RDKit          3D

 19 19  0  0  0  0  0  0  0  0999 V2000
    1.1319   -0.8050   -0.1755 C   0  0  0  0  0  0  0  0  0  0  0  0
   -0.2061   -0.1852   -0.1302 C   0  0  0  0  0  0  0  0  0  0  0  0
    1.9108   -0.3868    0.8495 O   0  0  0  0  0  0  0  0  0  0  0  0
    1.4364   -1.6447   -1.0120 O   0  0  0  0  0  0  0  0  0  0  0  0
    3.2448   -0.0936    0.4393 C   0  0  0  0  0  0  0  0  0  0  0  0
   -0.3176    1.1485    0.0371 C   0  0  0  0  0  0  0  0  0  0  0  0
   -1.4050   -1.0129   -0.0707 C   0  0  0  0  0  0  0  0  0  0  0  0
   -1.5164    1.6978    0.6675 C   0  0  0  0  0  0  0  0  0  0  0  0
   -2.5452   -0.4950    0.4154 C   0  0  0  0  0  0  0  0  0  0  0  0
   -1.3574   -2.2985   -0.5627 O   0  0  0  0  0  0  0  0  0  0  0  0
   -1.5697    3.6792    1.2322 I   0  0  0  0  0  0  0  0  0  0  0  0
   -2.5850    0.8937    0.8497 C   0  0  0  0  0  0  0  0  0  0  0  0
    3.7626    0.3824    1.2765 H   0  0  0  0  0  0  0  0  0  0  0  0
    3.2472    0.5970   -0.4105 H   0  0  0  0  0  0  0  0  0  0  0  0
    3.7732   -1.0165    0.1812 H   0  0  0  0  0  0  0  0  0  0  0  0
    0.4424    1.8302   -0.3296 H   0  0  0  0  0  0  0  0  0  0  0  0
   -3.4548   -1.0841    0.4606 H   0  0  0  0  0  0  0  0  0  0  0  0
   -0.4853   -2.4528   -0.9803 H   0  0  0  0  0  0  0  0  0  0  0  0
   -3.5070    1.2465    1.3012 H   0  0  0  0  0  0  0  0  0  0  0  0
  1  2  1  0
  1  3  1  0
  1  4  2  0
  3  5  1  0
  2  6  2  0
  7  2  1  0
  6  8  1  0
  9  7  2  0
  7 10  1  0
  8 11  1  0
  8 12  2  0
 12  9  1  0
  5 13  1  0
  5 14  1  0
  5 15  1  0
  6 16  1  0
  9 17  1  0
 10 18  1  0
 12 19  1  0
M  END
$$$$

     RDKit          3D

 18 18  0  0  0  0  0  0  0  0999 V2000
    1.3305    0.4211   -0.7378 C   0  0  0  0  0  0  0  0  0  0  0  0
   -0.0888    0.0348   -0.8471 C   0  0  0  0  0  0  0  0  0  0  0  0
    1.6252    0.7300    0.5500 O   0  0  0  0  0  0  0  0  0  0  0  0
    2.0968    0.4949   -1.6855 O   0  0  0  0  0  0  0  0  0  0  0  0
    2.9211    0.2807    0.9409 C   0  0  0  0  0  0  0  0  0  0  0  0
   -0.9562    1.0349   -1.1060 C   0  0  0  0  0  0  0  0  0  0  0  0
   -0.5865   -1.2596   -0.3907 C   0  0  0  0  0  0  0  0  0  0  0  0
   -2.3155    0.9491   -0.5999 C   0  0  0  0  0  0  0  0  0  0  0  0
   -1.8754   -1.3607   -0.0049 C   0  0  0  0  0  0  0  0  0  0  0  0
    0.5428   -2.7452   -0.4099 Br  0  0  0  0  0  0  0  0  0  0  0  0
   -2.7557   -0.2038   -0.0659 C   0  0  0  0  0  0  0  0  0  0  0  0
    3.6925    0.8827    0.4508 H   0  0  0  0  0  0  0  0  0  0  0  0
    3.0583   -0.7789    0.7033 H   0  0  0  0  0  0  0  0  0  0  0  0
    3.0144    0.4091    2.0227 H   0  0  0  0  0  0  0  0  0  0  0  0
   -0.6799    1.8912   -1.7137 H   0  0  0  0  0  0  0  0  0  0  0  0
   -2.9549    1.8228   -0.6740 H   0  0  0  0  0  0  0  0  0  0  0  0
   -2.3008   -2.3004    0.3324 H   0  0  0  0  0  0  0  0  0  0  0  0
   -3.7679   -0.3026    0.3127 H   0  0  0  0  0  0  0  0  0  0  0  0
  1  2  1  0
  1  3  1  0
  1  4  2  0
  3  5  1  0
  2  6  2  0
  7  2  1  0
  6  8  1  0
  9  7  2  0
  7 10  1  0
  8 11  2  0
 11  9  1  0
  5 12  1  0
  5 13  1  0
  5 14  1  0
  6 15  1  0
  8 16  1  0
  9 17  1  0
 11 18  1  0
M  END
$$$$

     RDKit          3D

 21 21  0  0  0  0  0  0  0  0999 V2000
    2.0368   -0.8567   -0.1374 C   0  0  0  0  0  0  0  0  0  0  0  0
    0.5970   -0.5451   -0.0478 C   0  0  0  0  0  0  0  0  0  0  0  0
    2.5802   -0.1917   -1.1869 O   0  0  0  0  0  0  0  0  0  0  0  0
    2.6345   -1.6051    0.6186 O   0  0  0  0  0  0  0  0  0  0  0  0
    3.7367    0.5516   -0.8116 C   0  0  0  0  0  0  0  0  0  0  0  0
   -0.2689   -1.2941   -0.7566 C   0  0  0  0  0  0  0  0  0  0  0  0
    0.1103    0.5327    0.7986 C   0  0  0  0  0  0  0  0  0  0  0  0
   -1.6822   -0.9506   -0.7614 C   0  0  0  0  0  0  0  0  0  0  0  0
   -1.2019    0.8294    0.8151 C   0  0  0  0  0  0  0  0  0  0  0  0
   -2.1409    0.0700   -0.0077 C   0  0  0  0  0  0  0  0  0  0  0  0
   -3.5822    0.4740    0.0401 C   0  0  0  0  0  0  0  0  0  0  0  0
    3.5212    1.2036    0.0415 H   0  0  0  0  0  0  0  0  0  0  0  0
    4.5623   -0.1259   -0.5726 H   0  0  0  0  0  0  0  0  0  0  0  0
    4.0324    1.1751   -1.6598 H   0  0  0  0  0  0  0  0  0  0  0  0
    0.0493   -2.1689   -1.3149 H   0  0  0  0  0  0  0  0  0  0  0  0
    0.8203    1.0765    1.4120 H   0  0  0  0  0  0  0  0  0  0  0  0
   -2.3439   -1.5456   -1.3830 H   0  0  0  0  0  0  0  0  0  0  0  0
   -1.5836    1.6276    1.4441 H   0  0  0  0  0  0  0  0  0  0  0  0
   -3.7021    1.5112   -0.2908 H   0  0  0  0  0  0  0  0  0  0  0  0
   -3.9728    0.3870    1.0596 H   0  0  0  0  0  0  0  0  0  0  0  0
   -4.2023   -0.1548   -0.6077 H   0  0  0  0  0  0  0  0  0  0  0  0
  1  2  1  0
  1  3  1  0
  1  4  2  0
  3  5  1  0
  2  6  2  0
  7  2  1  0
  6  8  1  0
  9  7  2  0
  8 10  2  0
 10  9  1  0
 10 11  1  0
  5 12  1  0
  5 13  1  0
  5 14  1  0
  6 15  1  0
  7 16  1  0
  8 17  1  0
  9 18  1  0
 11 19  1  0
 11 20  1  0
 11 21  1  0
M  END
$$$$

     RDKit          3D

 18 18  0  0  0  0  0  0  0  0999 V2000
    1.0770    0.8393   -0.1198 C   0  0  0  0  0  0  0  0  0  0  0  0
   -0.1716    0.0991    0.1410 C   0  0  0  0  0  0  0  0  0  0  0  0
    2.0263    0.4228    0.7557 O   0  0  0  0  0  0  0  0  0  0  0  0
    1.2217    1.6796   -0.9926 O   0  0  0  0  0  0  0  0  0  0  0  0
    3.3214    0.3360    0.1651 C   0  0  0  0  0  0  0  0  0  0  0  0
   -0.4156   -0.9655   -0.6517 C   0  0  0  0  0  0  0  0  0  0  0  0
   -1.2562    0.6919    0.9112 C   0  0  0  0  0  0  0  0  0  0  0  0
   -1.7879   -1.3650   -0.9189 C   0  0  0  0  0  0  0  0  0  0  0  0
   -2.5215    0.2766    0.7089 C   0  0  0  0  0  0  0  0  0  0  0  0
   -0.9117    1.8809    2.1109 Cl  0  0  0  0  0  0  0  0  0  0  0  0
   -2.7999   -0.7656   -0.2668 C   0  0  0  0  0  0  0  0  0  0  0  0
    3.7055    1.3369   -0.0551 H   0  0  0  0  0  0  0  0  0  0  0  0
    3.2932   -0.2711   -0.7457 H   0  0  0  0  0  0  0  0  0  0  0  0
    3.9922   -0.1441    0.8828 H   0  0  0  0  0  0  0  0  0  0  0  0
    0.3847   -1.5438   -1.1024 H   0  0  0  0  0  0  0  0  0  0  0  0
   -1.9685   -2.1497   -1.6466 H   0  0  0  0  0  0  0  0  0  0  0  0
   -3.3555    0.6868    1.2688 H   0  0  0  0  0  0  0  0  0  0  0  0
   -3.8334   -1.0451   -0.4447 H   0  0  0  0  0  0  0  0  0  0  0  0
  1  2  1  0
  1  3  1  0
  1  4  2  0
  3  5  1  0
  2  6  2  0
  7  2  1  0
  6  8  1  0
  9  7  2  0
  7 10  1  0
  8 11  2  0
 11  9  1  0
  5 12  1  0
  5 13  1  0
  5 14  1  0
  6 15  1  0
  8 16  1  0
  9 17  1  0
 11 18  1  0
M  END
$$$$

     RDKit          3D

 18 18  0  0  0  0  0  0  0  0999 V2000
    1.2780    0.1274   -0.5611 C   0  0  0  0  0  0  0  0  0  0  0  0
   -0.0849   -0.1852   -0.0896 C   0  0  0  0  0  0  0  0  0  0  0  0
    2.1751   -0.5290    0.2158 O   0  0  0  0  0  0  0  0  0  0  0  0
    1.5382    0.8275   -1.5256 O   0  0  0  0  0  0  0  0  0  0  0  0
    3.3180    0.2674    0.5235 C   0  0  0  0  0  0  0  0  0  0  0  0
   -0.7170   -1.1939   -0.7252 C   0  0  0  0  0  0  0  0  0  0  0  0
   -0.8569    0.7747    0.6880 C   0  0  0  0  0  0  0  0  0  0  0  0
   -2.1678   -1.1760   -0.8387 C   0  0  0  0  0  0  0  0  0  0  0  0
   -2.2026    0.7533    0.6337 C   0  0  0  0  0  0  0  0  0  0  0  0
   -0.0460    1.8966    1.7157 Cl  0  0  0  0  0  0  0  0  0  0  0  0
   -2.8783   -0.2375   -0.1876 C   0  0  0  0  0  0  0  0  0  0  0  0
   -4.5951   -0.1908   -0.2856 Cl  0  0  0  0  0  0  0  0  0  0  0  0
    3.0218    1.2429    0.9220 H   0  0  0  0  0  0  0  0  0  0  0  0
    3.9399    0.3945   -0.3680 H   0  0  0  0  0  0  0  0  0  0  0  0
    3.9032   -0.2560    1.2846 H   0  0  0  0  0  0  0  0  0  0  0  0
   -0.1756   -2.0294   -1.1592 H   0  0  0  0  0  0  0  0  0  0  0  0
   -2.6443   -1.9346   -1.4515 H   0  0  0  0  0  0  0  0  0  0  0  0
   -2.8057    1.4480    1.2090 H   0  0  0  0  0  0  0  0  0  0  0  0
  1  2  1  0
  1  3  1  0
  1  4  2  0
  3  5  1  0
  2  6  2  0
  7  2  1  0
  6  8  1  0
  9  7  2  0
  7 10  1  0
  8 11  2  0
 11  9  1  0
 11 12  1  0
  5 13  1  0
  5 14  1  0
  5 15  1  0
  6 16  1  0
  8 17  1  0
  9 18  1  0
M  END
$$$$

     RDKit          3D

 18 18  0  0  0  0  0  0  0  0999 V2000
    1.2455   -0.7646   -0.5687 C   0  0  0  0  0  0  0  0  0  0  0  0
   -0.1162   -0.4186   -0.1142 C   0  0  0  0  0  0  0  0  0  0  0  0
    1.8170    0.3210   -1.1452 O   0  0  0  0  0  0  0  0  0  0  0  0
    1.7595   -1.8639   -0.4452 O   0  0  0  0  0  0  0  0  0  0  0  0
    3.1261    0.5743   -0.6410 C   0  0  0  0  0  0  0  0  0  0  0  0
   -1.1406   -0.5758   -0.9757 C   0  0  0  0  0  0  0  0  0  0  0  0
   -0.3622    0.0464    1.2438 C   0  0  0  0  0  0  0  0  0  0  0  0
   -2.4860   -0.1913   -0.5724 C   0  0  0  0  0  0  0  0  0  0  0  0
   -1.6115    0.3786    1.6203 C   0  0  0  0  0  0  0  0  0  0  0  0
   -2.7094    0.2660    0.6732 C   0  0  0  0  0  0  0  0  0  0  0  0
   -4.2865    0.7242    1.1865 Cl  0  0  0  0  0  0  0  0  0  0  0  0
    3.1190    0.6248    0.4529 H   0  0  0  0  0  0  0  0  0  0  0  0
    3.8201   -0.2006   -0.9812 H   0  0  0  0  0  0  0  0  0  0  0  0
    3.4620    1.5387   -1.0317 H   0  0  0  0  0  0  0  0  0  0  0  0
   -1.0025   -1.0029   -1.9643 H   0  0  0  0  0  0  0  0  0  0  0  0
    0.4723    0.1104    1.9340 H   0  0  0  0  0  0  0  0  0  0  0  0
   -3.2861   -0.2910   -1.2983 H   0  0  0  0  0  0  0  0  0  0  0  0
   -1.8205    0.7242    2.6272 H   0  0  0  0  0  0  0  0  0  0  0  0
  1  2  1  0
  1  3  1  0
  1  4  2  0
  3  5  1  0
  2  6  2  0
  7  2  1  0
  6  8  1  0
  9  7  2  0
  8 10  2  0
 10  9  1  0
 10 11  1  0
  5 12  1  0
  5 13  1  0
  5 14  1  0
  6 15  1  0
  7 16  1  0
  8 17  1  0
  9 18  1  0
M  END
$$$$

     RDKit          3D

 18 18  0  0  0  0  0  0  0  0999 V2000
    1.4529   -0.6629   -0.0208 C   0  0  0  0  0  0  0  0  0  0  0  0
   -0.0016   -0.4659   -0.1831 C   0  0  0  0  0  0  0  0  0  0  0  0
    1.8781    0.0019    1.0814 O   0  0  0  0  0  0  0  0  0  0  0  0
    2.1495   -1.3351   -0.7631 O   0  0  0  0  0  0  0  0  0  0  0  0
    2.9969    0.8410    0.8058 C   0  0  0  0  0  0  0  0  0  0  0  0
   -0.4300    0.4086   -1.1140 C   0  0  0  0  0  0  0  0  0  0  0  0
   -0.9603   -1.1884    0.6395 C   0  0  0  0  0  0  0  0  0  0  0  0
   -1.8493    0.7191   -1.2097 C   0  0  0  0  0  0  0  0  0  0  0  0
   -2.2750   -0.9223    0.5249 C   0  0  0  0  0  0  0  0  0  0  0  0
   -2.7400    0.0801   -0.4262 C   0  0  0  0  0  0  0  0  0  0  0  0
   -4.5695    0.4236   -0.5116 Br  0  0  0  0  0  0  0  0  0  0  0  0
    3.1916    1.4526    1.6910 H   0  0  0  0  0  0  0  0  0  0  0  0
    3.8842    0.2345    0.5990 H   0  0  0  0  0  0  0  0  0  0  0  0
    2.7862    1.5063   -0.0381 H   0  0  0  0  0  0  0  0  0  0  0  0
    0.2374    0.8277   -1.8608 H   0  0  0  0  0  0  0  0  0  0  0  0
   -0.5912   -1.9330    1.3373 H   0  0  0  0  0  0  0  0  0  0  0  0
   -2.1578    1.4636   -1.9365 H   0  0  0  0  0  0  0  0  0  0  0  0
   -3.0021   -1.4515    1.1323 H   0  0  0  0  0  0  0  0  0  0  0  0
  1  2  1  0
  1  3  1  0
  1  4  2  0
  3  5  1  0
  2  6  2  0
  7  2  1  0
  6  8  1  0
  9  7  2  0
  8 10  2  0
 10  9  1  0
 10 11  1  0
  5 12  1  0
  5 13  1  0
  5 14  1  0
  6 15  1  0
  7 16  1  0
  8 17  1  0
  9 18  1  0
M  END
$$$$

     RDKit          3D

 19 19  0  0  0  0  0  0  0  0999 V2000
   -1.2061    0.4318   -0.6948 C   0  0  0  0  0  0  0  0  0  0  0  0
    0.1437    0.1240   -0.1739 C   0  0  0  0  0  0  0  0  0  0  0  0
   -2.0514   -0.5695   -0.3280 O   0  0  0  0  0  0  0  0  0  0  0  0
   -1.5144    1.4108   -1.3530 O   0  0  0  0  0  0  0  0  0  0  0  0
   -3.2267   -0.0675    0.3066 C   0  0  0  0  0  0  0  0  0  0  0  0
    0.8021    1.1352    0.4305 C   0  0  0  0  0  0  0  0  0  0  0  0
    0.8929   -1.0483   -0.6212 C   0  0  0  0  0  0  0  0  0  0  0  0
    2.2536    1.1978    0.3500 C   0  0  0  0  0  0  0  0  0  0  0  0
    2.2368   -1.0217   -0.6247 C   0  0  0  0  0  0  0  0  0  0  0  0
    0.2063   -2.1885   -0.9773 O   0  0  0  0  0  0  0  0  0  0  0  0
    2.9419    0.1630   -0.1647 C   0  0  0  0  0  0  0  0  0  0  0  0
   -2.9667    0.6036    1.1319 H   0  0  0  0  0  0  0  0  0  0  0  0
   -3.7851   -0.9164    0.7104 H   0  0  0  0  0  0  0  0  0  0  0  0
   -3.8583    0.4511   -0.4213 H   0  0  0  0  0  0  0  0  0  0  0  0
    0.2805    1.9594    0.9070 H   0  0  0  0  0  0  0  0  0  0  0  0
    2.7557    2.0919    0.7046 H   0  0  0  0  0  0  0  0  0  0  0  0
    2.8142   -1.8842   -0.9385 H   0  0  0  0  0  0  0  0  0  0  0  0
   -0.7431   -2.0537   -0.7966 H   0  0  0  0  0  0  0  0  0  0  0  0
    4.0241    0.1811   -0.2389 H   0  0  0  0  0  0  0  0  0  0  0  0
  1  2  1  0
  1  3  1  0
  1  4  2  0
  3  5  1  0
  2  6  2  0
  7  2  1  0
  6  8  1  0
  9  7  2  0
  7 10  1  0
  8 11  2  0
 11  9  1  0
  5 12  1  0
  5 13  1  0
  5 14  1  0
  6 15  1  0
  8 16  1  0
  9 17  1  0
 10 18  1  0
 11 19  1  0
M  END
$$$$

     RDKit          3D

 18 18  0  0  0  0  0  0  0  0999 V2000
    1.1669   -0.9605   -0.1080 C   0  0  0  0  0  0  0  0  0  0  0  0
   -0.1718   -0.3601   -0.0091 C   0  0  0  0  0  0  0  0  0  0  0  0
    1.9282   -0.5431    0.9336 O   0  0  0  0  0  0  0  0  0  0  0  0
    1.5152   -1.7477   -0.9729 O   0  0  0  0  0  0  0  0  0  0  0  0
    3.1728    0.0012    0.5006 C   0  0  0  0  0  0  0  0  0  0  0  0
   -1.1751   -1.0945    0.5124 C   0  0  0  0  0  0  0  0  0  0  0  0
   -0.4467    0.9399   -0.5840 C   0  0  0  0  0  0  0  0  0  0  0  0
   -2.5343   -0.5723    0.4907 C   0  0  0  0  0  0  0  0  0  0  0  0
   -1.6992    1.4251   -0.6048 C   0  0  0  0  0  0  0  0  0  0  0  0
    0.5731    1.6632   -1.0885 F   0  0  0  0  0  0  0  0  0  0  0  0
   -2.7858    0.6358   -0.0468 C   0  0  0  0  0  0  0  0  0  0  0  0
    3.6673    0.4524    1.3652 H   0  0  0  0  0  0  0  0  0  0  0  0
    3.8160   -0.7913    0.1056 H   0  0  0  0  0  0  0  0  0  0  0  0
    3.0186    0.7771   -0.2563 H   0  0  0  0  0  0  0  0  0  0  0  0
   -1.0099   -2.0855    0.9239 H   0  0  0  0  0  0  0  0  0  0  0  0
   -3.3285   -1.1816    0.9105 H   0  0  0  0  0  0  0  0  0  0  0  0
   -1.9159    2.3978   -1.0300 H   0  0  0  0  0  0  0  0  0  0  0  0
   -3.7909    1.0441   -0.0774 H   0  0  0  0  0  0  0  0  0  0  0  0
  1  2  1  0
  1  3  1  0
  1  4  2  0
  3  5  1  0
  2  6  2  0
  7  2  1  0
  6  8  1  0
  9  7  2  0
  7 10  1  0
  8 11  2  0
 11  9  1  0
  5 12  1  0
  5 13  1  0
  5 14  1  0
  6 15  1  0
  8 16  1  0
  9 17  1  0
 11 18  1  0
M  END
$$$$

     RDKit          3D

 18 18  0  0  0  0  0  0  0  0999 V2000
    1.2812    0.5844   -0.6865 C   0  0  0  0  0  0  0  0  0  0  0  0
   -0.1142    0.1680   -0.4395 C   0  0  0  0  0  0  0  0  0  0  0  0
    1.8308    1.0283    0.4703 O   0  0  0  0  0  0  0  0  0  0  0  0
    1.8360    0.5438   -1.7722 O   0  0  0  0  0  0  0  0  0  0  0  0
    3.0845    0.4076    0.7440 C   0  0  0  0  0  0  0  0  0  0  0  0
   -0.3820   -1.1506   -0.3472 C   0  0  0  0  0  0  0  0  0  0  0  0
   -1.1827    1.1500   -0.2961 C   0  0  0  0  0  0  0  0  0  0  0  0
   -1.7260   -1.5867    0.0037 C   0  0  0  0  0  0  0  0  0  0  0  0
   -2.4297    0.7387    0.0006 C   0  0  0  0  0  0  0  0  0  0  0  0
   -2.6987   -0.6751    0.1649 C   0  0  0  0  0  0  0  0  0  0  0  0
   -3.9525   -1.0547    0.4786 F   0  0  0  0  0  0  0  0  0  0  0  0
    2.9957   -0.6831    0.7055 H   0  0  0  0  0  0  0  0  0  0  0  0
    3.3959    0.6961    1.7516 H   0  0  0  0  0  0  0  0  0  0  0  0
    3.8418    0.7524    0.0330 H   0  0  0  0  0  0  0  0  0  0  0  0
    0.3488   -1.9076   -0.6147 H   0  0  0  0  0  0  0  0  0  0  0  0
   -0.9475    2.2008   -0.4298 H   0  0  0  0  0  0  0  0  0  0  0  0
   -1.9282   -2.6453    0.1156 H   0  0  0  0  0  0  0  0  0  0  0  0
   -3.2533    1.4330    0.1184 H   0  0  0  0  0  0  0  0  0  0  0  0
  1  2  1  0
  1  3  1  0
  1  4  2  0
  3  5  1  0
  2  6  2  0
  7  2  1  0
  6  8  1  0
  9  7  2  0
  8 10  2  0
 10  9  1  0
 10 11  1  0
  5 12  1  0
  5 13  1  0
  5 14  1  0
  6 15  1  0
  7 16  1  0
  8 17  1  0
  9 18  1  0
M  END
$$$$

     RDKit          3D

 18 18  0  0  0  0  0  0  0  0999 V2000
    1.3640   -0.3757   -0.6803 C   0  0  0  0  0  0  0  0  0  0  0  0
   -0.0776   -0.1207   -0.4911 C   0  0  0  0  0  0  0  0  0  0  0  0
    1.8798   -0.9256    0.4468 O   0  0  0  0  0  0  0  0  0  0  0  0
    1.9843   -0.1373   -1.7037 O   0  0  0  0  0  0  0  0  0  0  0  0
    3.0119   -0.2044    0.9254 C   0  0  0  0  0  0  0  0  0  0  0  0
   -0.4780    1.1442   -0.2550 C   0  0  0  0  0  0  0  0  0  0  0  0
   -1.0506   -1.2031   -0.5331 C   0  0  0  0  0  0  0  0  0  0  0  0
   -1.8677    1.4055    0.0861 C   0  0  0  0  0  0  0  0  0  0  0  0
   -2.3417   -0.9506   -0.2514 C   0  0  0  0  0  0  0  0  0  0  0  0
   -2.7614    0.3999    0.0846 C   0  0  0  0  0  0  0  0  0  0  0  0
    3.2865   -0.6090    1.9034 H   0  0  0  0  0  0  0  0  0  0  0  0
    2.7761    0.8586    1.0419 H   0  0  0  0  0  0  0  0  0  0  0  0
    3.8593   -0.3328    0.2448 H   0  0  0  0  0  0  0  0  0  0  0  0
    0.1814    1.9934   -0.4038 H   0  0  0  0  0  0  0  0  0  0  0  0
   -0.7099   -2.2003   -0.7909 H   0  0  0  0  0  0  0  0  0  0  0  0
   -2.1612    2.4228    0.3224 H   0  0  0  0  0  0  0  0  0  0  0  0
   -3.0900   -1.7358   -0.2724 H   0  0  0  0  0  0  0  0  0  0  0  0
   -3.8052    0.5710    0.3262 H   0  0  0  0  0  0  0  0  0  0  0  0
  1  2  1  0
  1  3  1  0
  1  4  2  0
  3  5  1  0
  2  6  2  0
  7  2  1  0
  6  8  1  0
  9  7  2  0
  8 10  2  0
 10  9  1  0
  5 11  1  0
  5 12  1  0
  5 13  1  0
  6 14  1  0
  7 15  1  0
  8 16  1  0
  9 17  1  0
 10 18  1  0
M  END
$$$$

     RDKit          3D

 18 18  0  0  0  0  0  0  0  0999 V2000
   -1.3606   -0.3879   -0.5779 C   0  0  0  0  0  0  0  0  0  0  0  0
    0.0731   -0.1344   -0.3661 C   0  0  0  0  0  0  0  0  0  0  0  0
   -1.8567   -1.0797    0.4769 O   0  0  0  0  0  0  0  0  0  0  0  0
   -1.9843   -0.0606   -1.5740 O   0  0  0  0  0  0  0  0  0  0  0  0
   -3.0258   -0.4669    1.0165 C   0  0  0  0  0  0  0  0  0  0  0  0
    0.9700   -0.9346   -0.9791 C   0  0  0  0  0  0  0  0  0  0  0  0
    0.5198    1.0375    0.3615 C   0  0  0  0  0  0  0  0  0  0  0  0
    2.3881   -0.6082   -0.9053 C   0  0  0  0  0  0  0  0  0  0  0  0
    1.8263    1.3408    0.4318 C   0  0  0  0  0  0  0  0  0  0  0  0
   -0.3945    1.8137    0.9771 F   0  0  0  0  0  0  0  0  0  0  0  0
    2.7860    0.4828   -0.2297 C   0  0  0  0  0  0  0  0  0  0  0  0
    4.0916    0.8041   -0.1497 F   0  0  0  0  0  0  0  0  0  0  0  0
   -3.2835   -0.9823    1.9457 H   0  0  0  0  0  0  0  0  0  0  0  0
   -3.8627   -0.5675    0.3184 H   0  0  0  0  0  0  0  0  0  0  0  0
   -2.8450    0.5891    1.2424 H   0  0  0  0  0  0  0  0  0  0  0  0
    0.6691   -1.8035   -1.5567 H   0  0  0  0  0  0  0  0  0  0  0  0
    3.1056   -1.2506   -1.4030 H   0  0  0  0  0  0  0  0  0  0  0  0
    2.1833    2.2084    0.9713 H   0  0  0  0  0  0  0  0  0  0  0  0
  1  2  1  0
  1  3  1  0
  1  4  2  0
  3  5  1  0
  2  6  2  0
  7  2  1  0
  6  8  1  0
  9  7  2  0
  7 10  1  0
  8 11  2  0
 11  9  1  0
 11 12  1  0
  5 13  1  0
  5 14  1  0
  5 15  1  0
  6 16  1  0
  8 17  1  0
  9 18  1  0
M  END
$$$$

     RDKit          3D

 27 27  0  0  0  0  0  0  0  0999 V2000
   -2.6077   -0.4246    0.0552 C   0  0  0  0  0  0  0  0  0  0  0  0
   -1.1378   -0.5321   -0.3044 C   0  0  0  0  0  0  0  0  0  0  0  0
   -2.8467    0.4973    1.2546 C   0  0  0  0  0  0  0  0  0  0  0  0
   -3.4583    0.0069   -1.1425 C   0  0  0  0  0  0  0  0  0  0  0  0
   -0.4726   -1.7070   -0.2563 C   0  0  0  0  0  0  0  0  0  0  0  0
   -0.3890    0.6787   -0.6493 C   0  0  0  0  0  0  0  0  0  0  0  0
    0.9814   -1.7362   -0.2859 C   0  0  0  0  0  0  0  0  0  0  0  0
    0.9548    0.6528   -0.7108 C   0  0  0  0  0  0  0  0  0  0  0  0
    1.6649   -0.5868   -0.4427 C   0  0  0  0  0  0  0  0  0  0  0  0
    3.1352   -0.6173   -0.3230 C   0  0  0  0  0  0  0  0  0  0  0  0
    3.4899   -0.4652    0.9768 O   0  0  0  0  0  0  0  0  0  0  0  0
    3.9043   -0.7646   -1.2588 O   0  0  0  0  0  0  0  0  0  0  0  0
    4.4355    0.5857    1.1561 C   0  0  0  0  0  0  0  0  0  0  0  0
   -2.9662   -1.4204    0.3519 H   0  0  0  0  0  0  0  0  0  0  0  0
   -2.1955    0.2292    2.0940 H   0  0  0  0  0  0  0  0  0  0  0  0
   -3.8815    0.4059    1.6030 H   0  0  0  0  0  0  0  0  0  0  0  0
   -2.6712    1.5494    1.0057 H   0  0  0  0  0  0  0  0  0  0  0  0
   -4.5237   -0.0991   -0.9093 H   0  0  0  0  0  0  0  0  0  0  0  0
   -3.2529   -0.6189   -2.0181 H   0  0  0  0  0  0  0  0  0  0  0  0
   -3.2802    1.0518   -1.4179 H   0  0  0  0  0  0  0  0  0  0  0  0
   -0.9946   -2.6582   -0.2954 H   0  0  0  0  0  0  0  0  0  0  0  0
   -0.9327    1.5927   -0.8644 H   0  0  0  0  0  0  0  0  0  0  0  0
    1.4750   -2.7029   -0.3004 H   0  0  0  0  0  0  0  0  0  0  0  0
    1.5262    1.5351   -0.9779 H   0  0  0  0  0  0  0  0  0  0  0  0
    4.5633    0.7511    2.2294 H   0  0  0  0  0  0  0  0  0  0  0  0
    4.0770    1.5147    0.7007 H   0  0  0  0  0  0  0  0  0  0  0  0
    5.4029    0.3026    0.7296 H   0  0  0  0  0  0  0  0  0  0  0  0
  1  2  1  0
  1  3  1  0
  1  4  1  0
  5  2  2  0
  2  6  1  0
  7  5  1  0
  6  8  2  0
  9  7  2  0
  8  9  1  0
 10  9  1  0
 10 11  1  0
 10 12  2  0
 11 13  1  0
  1 14  1  0
  3 15  1  0
  3 16  1  0
  3 17  1  0
  4 18  1  0
  4 19  1  0
  4 20  1  0
  5 21  1  0
  6 22  1  0
  7 23  1  0
  8 24  1  0
 13 25  1  0
 13 26  1  0
 13 27  1  0
M  END
$$$$

     RDKit          3D

 29 30  0  0  0  0  0  0  0  0999 V2000
   -0.5415   -0.1151   -0.3065 C   0  0  0  0  0  0  0  0  0  0  0  0
   -1.9910   -0.3127   -0.3852 C   0  0  0  0  0  0  0  0  0  0  0  0
    0.2424   -1.1034    0.1821 C   0  0  0  0  0  0  0  0  0  0  0  0
    0.1041    1.1529   -0.6674 C   0  0  0  0  0  0  0  0  0  0  0  0
    1.5986   -0.8243    0.6295 C   0  0  0  0  0  0  0  0  0  0  0  0
    1.3888    1.3892   -0.3453 C   0  0  0  0  0  0  0  0  0  0  0  0
    2.1570    0.3685    0.3489 C   0  0  0  0  0  0  0  0  0  0  0  0
    3.5266    0.6369    0.8295 C   0  0  0  0  0  0  0  0  0  0  0  0
    4.4211    0.2024   -0.0924 O   0  0  0  0  0  0  0  0  0  0  0  0
    3.8005    1.1628    1.8957 O   0  0  0  0  0  0  0  0  0  0  0  0
    5.3702    1.2084   -0.4364 C   0  0  0  0  0  0  0  0  0  0  0  0
   -2.7445   -0.0223    0.7015 C   0  0  0  0  0  0  0  0  0  0  0  0
   -2.6806   -0.8577   -1.5627 C   0  0  0  0  0  0  0  0  0  0  0  0
   -4.1262   -0.4801    0.8117 C   0  0  0  0  0  0  0  0  0  0  0  0
   -3.9748   -1.2194   -1.4979 C   0  0  0  0  0  0  0  0  0  0  0  0
   -1.9257   -0.9611   -2.7067 O   0  0  0  0  0  0  0  0  0  0  0  0
   -5.1669   -0.2173    2.5734 I   0  0  0  0  0  0  0  0  0  0  0  0
   -4.7118   -1.0563   -0.2566 C   0  0  0  0  0  0  0  0  0  0  0  0
   -0.0903   -2.1371    0.1931 H   0  0  0  0  0  0  0  0  0  0  0  0
   -0.4877    1.8899   -1.2007 H   0  0  0  0  0  0  0  0  0  0  0  0
    2.1580   -1.6263    1.1003 H   0  0  0  0  0  0  0  0  0  0  0  0
    1.8720    2.3250   -0.6032 H   0  0  0  0  0  0  0  0  0  0  0  0
    5.9603    0.8465   -1.2828 H   0  0  0  0  0  0  0  0  0  0  0  0
    4.8664    2.1342   -0.7334 H   0  0  0  0  0  0  0  0  0  0  0  0
    6.0454    1.3964    0.4042 H   0  0  0  0  0  0  0  0  0  0  0  0
   -2.3421    0.5852    1.5075 H   0  0  0  0  0  0  0  0  0  0  0  0
   -4.5074   -1.6250   -2.3499 H   0  0  0  0  0  0  0  0  0  0  0  0
   -2.4824   -1.3335   -3.4095 H   0  0  0  0  0  0  0  0  0  0  0  0
   -5.7386   -1.4069   -0.2338 H   0  0  0  0  0  0  0  0  0  0  0  0
  1  2  1  0
  3  1  2  0
  1  4  1  0
  5  3  1  0
  4  6  2  0
  7  5  2  0
  6  7  1  0
  8  7  1  0
  8  9  1  0
  8 10  2  0
  9 11  1  0
  2 12  2  0
 13  2  1  0
 12 14  1  0
 15 13  2  0
 13 16  1  0
 14 17  1  0
 14 18  2  0
 18 15  1  0
  3 19  1  0
  4 20  1  0
  5 21  1  0
  6 22  1  0
 11 23  1  0
 11 24  1  0
 11 25  1  0
 12 26  1  0
 15 27  1  0
 16 28  1  0
 18 29  1  0
M  END
$$$$

     RDKit          3D

 28 29  0  0  0  0  0  0  0  0999 V2000
   -0.6422    0.1822    0.1525 C   0  0  0  0  0  0  0  0  0  0  0  0
   -2.0693    0.4839    0.0011 C   0  0  0  0  0  0  0  0  0  0  0  0
    0.2637    1.1841    0.0700 C   0  0  0  0  0  0  0  0  0  0  0  0
   -0.1460   -1.1802    0.3860 C   0  0  0  0  0  0  0  0  0  0  0  0
    1.6850    0.9296    0.2509 C   0  0  0  0  0  0  0  0  0  0  0  0
    1.1708   -1.4274    0.5039 C   0  0  0  0  0  0  0  0  0  0  0  0
    2.1224   -0.3351    0.3952 C   0  0  0  0  0  0  0  0  0  0  0  0
    3.5777   -0.5729    0.4632 C   0  0  0  0  0  0  0  0  0  0  0  0
    4.0081   -1.0887   -0.7143 O   0  0  0  0  0  0  0  0  0  0  0  0
    4.2736   -0.3508    1.4407 O   0  0  0  0  0  0  0  0  0  0  0  0
    5.0939   -0.3445   -1.2608 C   0  0  0  0  0  0  0  0  0  0  0  0
   -2.7843    0.7340    1.1232 C   0  0  0  0  0  0  0  0  0  0  0  0
   -2.8299    0.3072   -1.2540 C   0  0  0  0  0  0  0  0  0  0  0  0
   -4.1936    0.3909    1.1931 C   0  0  0  0  0  0  0  0  0  0  0  0
   -4.1620    0.0999   -1.2056 C   0  0  0  0  0  0  0  0  0  0  0  0
   -1.9325    0.4112   -2.8922 Br  0  0  0  0  0  0  0  0  0  0  0  0
   -4.8583    0.0803    0.0680 C   0  0  0  0  0  0  0  0  0  0  0  0
   -0.0407    2.2143   -0.0921 H   0  0  0  0  0  0  0  0  0  0  0  0
   -0.8739   -1.9826    0.4611 H   0  0  0  0  0  0  0  0  0  0  0  0
    2.3474    1.7827    0.3571 H   0  0  0  0  0  0  0  0  0  0  0  0
    1.5451   -2.4312    0.6752 H   0  0  0  0  0  0  0  0  0  0  0  0
    5.9887   -0.4654   -0.6419 H   0  0  0  0  0  0  0  0  0  0  0  0
    5.3065   -0.7342   -2.2599 H   0  0  0  0  0  0  0  0  0  0  0  0
    4.8335    0.7154   -1.3485 H   0  0  0  0  0  0  0  0  0  0  0  0
   -2.3300    1.1870    1.9996 H   0  0  0  0  0  0  0  0  0  0  0  0
   -4.6862    0.4093    2.1599 H   0  0  0  0  0  0  0  0  0  0  0  0
   -4.7533   -0.0305   -2.1058 H   0  0  0  0  0  0  0  0  0  0  0  0
   -5.9143   -0.1684    0.0817 H   0  0  0  0  0  0  0  0  0  0  0  0
  1  2  1  0
  3  1  2  0
  1  4  1  0
  5  3  1  0
  4  6  2  0
  7  5  2  0
  6  7  1  0
  8  7  1  0
  8  9  1  0
  8 10  2  0
  9 11  1  0
  2 12  2  0
 13  2  1  0
 12 14  1  0
 15 13  2  0
 13 16  1  0
 14 17  2  0
 17 15  1  0
  3 18  1  0
  4 19  1  0
  5 20  1  0
  6 21  1  0
 11 22  1  0
 11 23  1  0
 11 24  1  0
 12 25  1  0
 14 26  1  0
 15 27  1  0
 17 28  1  0
M  END
$$$$

     RDKit          3D

 31 32  0  0  0  0  0  0  0  0999 V2000
   -0.0041   -0.4790   -0.0288 C   0  0  0  0  0  0  0  0  0  0  0  0
   -1.4040   -0.1107   -0.2369 C   0  0  0  0  0  0  0  0  0  0  0  0
    0.8563   -0.4381   -1.0723 C   0  0  0  0  0  0  0  0  0  0  0  0
    0.5272   -0.8394    1.2912 C   0  0  0  0  0  0  0  0  0  0  0  0
    2.2802   -0.6726   -0.8820 C   0  0  0  0  0  0  0  0  0  0  0  0
    1.8450   -1.0355    1.4770 C   0  0  0  0  0  0  0  0  0  0  0  0
    2.7593   -0.8869    0.3577 C   0  0  0  0  0  0  0  0  0  0  0  0
    4.2226   -0.9314    0.5464 C   0  0  0  0  0  0  0  0  0  0  0  0
    4.6474    0.2380    1.0851 O   0  0  0  0  0  0  0  0  0  0  0  0
    4.9297   -1.8864    0.2695 O   0  0  0  0  0  0  0  0  0  0  0  0
    5.6901    0.8339    0.3180 C   0  0  0  0  0  0  0  0  0  0  0  0
   -2.3105   -1.0714   -0.5243 C   0  0  0  0  0  0  0  0  0  0  0  0
   -1.8829    1.2689   -0.1175 C   0  0  0  0  0  0  0  0  0  0  0  0
   -3.7105   -0.7445   -0.7392 C   0  0  0  0  0  0  0  0  0  0  0  0
   -3.1789    1.5731   -0.3075 C   0  0  0  0  0  0  0  0  0  0  0  0
   -4.1402    0.5282   -0.6367 C   0  0  0  0  0  0  0  0  0  0  0  0
   -5.5653    0.9375   -0.8427 C   0  0  0  0  0  0  0  0  0  0  0  0
    0.5009   -0.3308   -2.0936 H   0  0  0  0  0  0  0  0  0  0  0  0
   -0.1759   -0.9455    2.1117 H   0  0  0  0  0  0  0  0  0  0  0  0
    2.8961   -0.8102   -1.7655 H   0  0  0  0  0  0  0  0  0  0  0  0
    2.2469   -1.3049    2.4480 H   0  0  0  0  0  0  0  0  0  0  0  0
    6.6067    0.2412    0.3979 H   0  0  0  0  0  0  0  0  0  0  0  0
    5.8843    1.8314    0.7217 H   0  0  0  0  0  0  0  0  0  0  0  0
    5.3933    0.9345   -0.7313 H   0  0  0  0  0  0  0  0  0  0  0  0
   -2.0262   -2.1166   -0.6024 H   0  0  0  0  0  0  0  0  0  0  0  0
   -1.1600    2.0398    0.1296 H   0  0  0  0  0  0  0  0  0  0  0  0
   -4.3862   -1.5586   -0.9809 H   0  0  0  0  0  0  0  0  0  0  0  0
   -3.5265    2.5971   -0.2172 H   0  0  0  0  0  0  0  0  0  0  0  0
   -5.6448    1.6539   -1.6673 H   0  0  0  0  0  0  0  0  0  0  0  0
   -6.2032    0.0807   -1.0850 H   0  0  0  0  0  0  0  0  0  0  0  0
   -5.9667    1.4043    0.0631 H   0  0  0  0  0  0  0  0  0  0  0  0
  1  2  1  0
  3  1  2  0
  1  4  1  0
  5  3  1  0
  4  6  2  0
  7  5  2  0
  6  7  1  0
  8  7  1  0
  8  9  1  0
  8 10  2  0
  9 11  1  0
  2 12  2  0
 13  2  1  0
 12 14  1  0
 15 13  2  0
 14 16  2  0
 16 15  1  0
 16 17  1  0
  3 18  1  0
  4 19  1  0
  5 20  1  0
  6 21  1  0
 11 22  1  0
 11 23  1  0
 11 24  1  0
 12 25  1  0
 13 26  1  0
 14 27  1  0
 15 28  1  0
 17 29  1  0
 17 30  1  0
 17 31  1  0
M  END
$$$$

     RDKit          3D

 28 29  0  0  0  0  0  0  0  0999 V2000
   -0.7196    0.3755   -0.0675 C   0  0  0  0  0  0  0  0  0  0  0  0
   -2.0604   -0.2103   -0.1457 C   0  0  0  0  0  0  0  0  0  0  0  0
   -0.2155    0.7333    1.1363 C   0  0  0  0  0  0  0  0  0  0  0  0
    0.1392    0.5452   -1.2462 C   0  0  0  0  0  0  0  0  0  0  0  0
    1.2056    1.0045    1.2986 C   0  0  0  0  0  0  0  0  0  0  0  0
    1.4469    0.8302   -1.1092 C   0  0  0  0  0  0  0  0  0  0  0  0
    2.0126    0.9797    0.2212 C   0  0  0  0  0  0  0  0  0  0  0  0
    3.4708    1.0658    0.4304 C   0  0  0  0  0  0  0  0  0  0  0  0
    3.9797   -0.1795    0.5995 O   0  0  0  0  0  0  0  0  0  0  0  0
    4.1075    2.1063    0.4536 O   0  0  0  0  0  0  0  0  0  0  0  0
    5.0949   -0.4255   -0.2533 C   0  0  0  0  0  0  0  0  0  0  0  0
   -2.1842   -1.5514   -0.0040 C   0  0  0  0  0  0  0  0  0  0  0  0
   -3.3013    0.5696   -0.2987 C   0  0  0  0  0  0  0  0  0  0  0  0
   -3.4698   -2.1553    0.3013 C   0  0  0  0  0  0  0  0  0  0  0  0
   -4.5018   -0.0065   -0.0978 C   0  0  0  0  0  0  0  0  0  0  0  0
   -3.2157    2.2336   -0.7578 Cl  0  0  0  0  0  0  0  0  0  0  0  0
   -4.5872   -1.4114    0.2558 C   0  0  0  0  0  0  0  0  0  0  0  0
   -0.8638    0.9406    1.9831 H   0  0  0  0  0  0  0  0  0  0  0  0
   -0.3146    0.4483   -2.2276 H   0  0  0  0  0  0  0  0  0  0  0  0
    1.5508    1.3625    2.2637 H   0  0  0  0  0  0  0  0  0  0  0  0
    2.0887    0.9749   -1.9714 H   0  0  0  0  0  0  0  0  0  0  0  0
    5.3588   -1.4836   -0.1740 H   0  0  0  0  0  0  0  0  0  0  0  0
    4.8436   -0.2063   -1.2963 H   0  0  0  0  0  0  0  0  0  0  0  0
    5.9547    0.1727    0.0641 H   0  0  0  0  0  0  0  0  0  0  0  0
   -1.3303   -2.2156   -0.1036 H   0  0  0  0  0  0  0  0  0  0  0  0
   -3.5000   -3.2101    0.5538 H   0  0  0  0  0  0  0  0  0  0  0  0
   -5.4276    0.5487   -0.2053 H   0  0  0  0  0  0  0  0  0  0  0  0
   -5.5620   -1.8360    0.4712 H   0  0  0  0  0  0  0  0  0  0  0  0
  1  2  1  0
  3  1  2  0
  1  4  1  0
  5  3  1  0
  4  6  2  0
  7  5  2  0
  6  7  1  0
  8  7  1  0
  8  9  1  0
  8 10  2  0
  9 11  1  0
  2 12  2  0
 13  2  1  0
 12 14  1  0
 15 13  2  0
 13 16  1  0
 14 17  2  0
 17 15  1  0
  3 18  1  0
  4 19  1  0
  5 20  1  0
  6 21  1  0
 11 22  1  0
 11 23  1  0
 11 24  1  0
 12 25  1  0
 14 26  1  0
 15 27  1  0
 17 28  1  0
M  END
$$$$

     RDKit          3D

 28 29  0  0  0  0  0  0  0  0999 V2000
   -0.6434    0.5021    0.1784 C   0  0  0  0  0  0  0  0  0  0  0  0
   -2.0433    0.0964    0.0295 C   0  0  0  0  0  0  0  0  0  0  0  0
   -0.1306    0.6932    1.4159 C   0  0  0  0  0  0  0  0  0  0  0  0
    0.2634    0.6505   -0.9668 C   0  0  0  0  0  0  0  0  0  0  0  0
    1.3096    0.7345    1.6263 C   0  0  0  0  0  0  0  0  0  0  0  0
    1.5937    0.7323   -0.7832 C   0  0  0  0  0  0  0  0  0  0  0  0
    2.1359    0.6837    0.5645 C   0  0  0  0  0  0  0  0  0  0  0  0
    3.5850    0.5425    0.8051 C   0  0  0  0  0  0  0  0  0  0  0  0
    3.9090   -0.7728    0.8630 O   0  0  0  0  0  0  0  0  0  0  0  0
    4.3595    1.4757    0.9380 O   0  0  0  0  0  0  0  0  0  0  0  0
    5.0137   -1.0932    0.0212 C   0  0  0  0  0  0  0  0  0  0  0  0
   -2.3337   -1.2260    0.0566 C   0  0  0  0  0  0  0  0  0  0  0  0
   -3.1743    1.0354   -0.0798 C   0  0  0  0  0  0  0  0  0  0  0  0
   -3.6947   -1.6873    0.2767 C   0  0  0  0  0  0  0  0  0  0  0  0
   -4.4430    0.6022    0.0468 C   0  0  0  0  0  0  0  0  0  0  0  0
   -2.8686    2.7080   -0.3899 Cl  0  0  0  0  0  0  0  0  0  0  0  0
   -4.7080   -0.8054    0.2712 C   0  0  0  0  0  0  0  0  0  0  0  0
   -6.3344   -1.3109    0.5106 Cl  0  0  0  0  0  0  0  0  0  0  0  0
   -0.7658    0.9420    2.2615 H   0  0  0  0  0  0  0  0  0  0  0  0
   -0.1704    0.7063   -1.9604 H   0  0  0  0  0  0  0  0  0  0  0  0
    1.6743    0.9598    2.6240 H   0  0  0  0  0  0  0  0  0  0  0  0
    2.2746    0.8589   -1.6179 H   0  0  0  0  0  0  0  0  0  0  0  0
    5.9348   -0.6592    0.4224 H   0  0  0  0  0  0  0  0  0  0  0  0
    5.1222   -2.1810   -0.0010 H   0  0  0  0  0  0  0  0  0  0  0  0
    4.8404   -0.7395   -1.0006 H   0  0  0  0  0  0  0  0  0  0  0  0
   -1.5638   -1.9818   -0.0739 H   0  0  0  0  0  0  0  0  0  0  0  0
   -3.8576   -2.7487    0.4318 H   0  0  0  0  0  0  0  0  0  0  0  0
   -5.2845    1.2821   -0.0323 H   0  0  0  0  0  0  0  0  0  0  0  0
  1  2  1  0
  3  1  2  0
  1  4  1  0
  5  3  1  0
  4  6  2  0
  7  5  2  0
  6  7  1  0
  8  7  1  0
  8  9  1  0
  8 10  2  0
  9 11  1  0
  2 12  2  0
 13  2  1  0
 12 14  1  0
 15 13  2  0
 13 16  1  0
 14 17  2  0
 17 15  1  0
 17 18  1  0
  3 19  1  0
  4 20  1  0
  5 21  1  0
  6 22  1  0
 11 23  1  0
 11 24  1  0
 11 25  1  0
 12 26  1  0
 14 27  1  0
 15 28  1  0
M  END
$$$$

     RDKit          3D

 28 29  0  0  0  0  0  0  0  0999 V2000
    0.5969   -0.3732   -0.2025 C   0  0  0  0  0  0  0  0  0  0  0  0
    2.0283   -0.2300    0.0603 C   0  0  0  0  0  0  0  0  0  0  0  0
   -0.2650   -0.4623    0.8368 C   0  0  0  0  0  0  0  0  0  0  0  0
    0.0479   -0.4338   -1.5624 C   0  0  0  0  0  0  0  0  0  0  0  0
   -1.7029   -0.5214    0.6174 C   0  0  0  0  0  0  0  0  0  0  0  0
   -1.2804   -0.4735   -1.7711 C   0  0  0  0  0  0  0  0  0  0  0  0
   -2.1879   -0.4553   -0.6367 C   0  0  0  0  0  0  0  0  0  0  0  0
   -3.6481   -0.3402   -0.8197 C   0  0  0  0  0  0  0  0  0  0  0  0
   -3.9679    0.9423   -1.1211 O   0  0  0  0  0  0  0  0  0  0  0  0
   -4.4347   -1.2681   -0.7258 O   0  0  0  0  0  0  0  0  0  0  0  0
   -4.9796    1.4596   -0.2608 C   0  0  0  0  0  0  0  0  0  0  0  0
    2.5688    1.0068    0.1501 C   0  0  0  0  0  0  0  0  0  0  0  0
    2.9228   -1.3846    0.2009 C   0  0  0  0  0  0  0  0  0  0  0  0
    3.9907    1.1885    0.3993 C   0  0  0  0  0  0  0  0  0  0  0  0
    4.2388   -1.2187    0.4260 C   0  0  0  0  0  0  0  0  0  0  0  0
    4.7918    0.1179    0.5315 C   0  0  0  0  0  0  0  0  0  0  0  0
    6.4777    0.2922    0.8255 Cl  0  0  0  0  0  0  0  0  0  0  0  0
    0.0882   -0.5930    1.8562 H   0  0  0  0  0  0  0  0  0  0  0  0
    0.7451   -0.4494   -2.3947 H   0  0  0  0  0  0  0  0  0  0  0  0
   -2.3377   -0.7641    1.4642 H   0  0  0  0  0  0  0  0  0  0  0  0
   -1.6963   -0.5220   -2.7720 H   0  0  0  0  0  0  0  0  0  0  0  0
   -4.7026    1.3268    0.7903 H   0  0  0  0  0  0  0  0  0  0  0  0
   -5.0837    2.5296   -0.4605 H   0  0  0  0  0  0  0  0  0  0  0  0
   -5.9377    0.9720   -0.4654 H   0  0  0  0  0  0  0  0  0  0  0  0
    1.9638    1.9023    0.0390 H   0  0  0  0  0  0  0  0  0  0  0  0
    2.4921   -2.3778    0.1175 H   0  0  0  0  0  0  0  0  0  0  0  0
    4.3716    2.2014    0.4718 H   0  0  0  0  0  0  0  0  0  0  0  0
    4.9002   -2.0719    0.5297 H   0  0  0  0  0  0  0  0  0  0  0  0
  1  2  1  0
  3  1  2  0
  1  4  1  0
  5  3  1  0
  4  6  2  0
  7  5  2  0
  6  7  1  0
  8  7  1  0
  8  9  1  0
  8 10  2  0
  9 11  1  0
  2 12  2  0
 13  2  1  0
 12 14  1  0
 15 13  2  0
 14 16  2  0
 16 15  1  0
 16 17  1  0
  3 18  1  0
  4 19  1  0
  5 20  1  0
  6 21  1  0
 11 22  1  0
 11 23  1  0
 11 24  1  0
 12 25  1  0
 13 26  1  0
 14 27  1  0
 15 28  1  0
M  END
$$$$

     RDKit          3D

 29 30  0  0  0  0  0  0  0  0999 V2000
   -0.6436   -0.6367    0.0752 C   0  0  0  0  0  0  0  0  0  0  0  0
   -2.0113   -0.1359   -0.0822 C   0  0  0  0  0  0  0  0  0  0  0  0
   -0.0857   -0.6702    1.3071 C   0  0  0  0  0  0  0  0  0  0  0  0
    0.2174   -0.9515   -1.0716 C   0  0  0  0  0  0  0  0  0  0  0  0
    1.3615   -0.6707    1.4659 C   0  0  0  0  0  0  0  0  0  0  0  0
    1.5541   -1.0086   -0.9292 C   0  0  0  0  0  0  0  0  0  0  0  0
    2.1471   -0.7731    0.3770 C   0  0  0  0  0  0  0  0  0  0  0  0
    3.6041   -0.6017    0.5398 C   0  0  0  0  0  0  0  0  0  0  0  0
    3.9216    0.7081    0.3944 O   0  0  0  0  0  0  0  0  0  0  0  0
    4.3850   -1.5082    0.7768 O   0  0  0  0  0  0  0  0  0  0  0  0
    5.0335    0.9030   -0.4766 C   0  0  0  0  0  0  0  0  0  0  0  0
   -3.0172   -1.0410   -0.1066 C   0  0  0  0  0  0  0  0  0  0  0  0
   -2.3704    1.2936   -0.1848 C   0  0  0  0  0  0  0  0  0  0  0  0
   -4.4070   -0.6264   -0.0087 C   0  0  0  0  0  0  0  0  0  0  0  0
   -3.6638    1.6816   -0.1569 C   0  0  0  0  0  0  0  0  0  0  0  0
   -1.3386    2.2053   -0.3116 O   0  0  0  0  0  0  0  0  0  0  0  0
   -5.7085   -1.9537    0.1274 Br  0  0  0  0  0  0  0  0  0  0  0  0
   -4.7149    0.6819   -0.0361 C   0  0  0  0  0  0  0  0  0  0  0  0
   -4.2081    3.4669   -0.2719 Br  0  0  0  0  0  0  0  0  0  0  0  0
   -0.6888   -0.7955    2.2025 H   0  0  0  0  0  0  0  0  0  0  0  0
   -0.2531   -1.1427   -2.0316 H   0  0  0  0  0  0  0  0  0  0  0  0
    1.7664   -0.7371    2.4716 H   0  0  0  0  0  0  0  0  0  0  0  0
    2.2041   -1.2522   -1.7631 H   0  0  0  0  0  0  0  0  0  0  0  0
    4.8734    0.3926   -1.4321 H   0  0  0  0  0  0  0  0  0  0  0  0
    5.9531    0.5449   -0.0034 H   0  0  0  0  0  0  0  0  0  0  0  0
    5.1343    1.9749   -0.6671 H   0  0  0  0  0  0  0  0  0  0  0  0
   -2.8114   -2.1015   -0.2276 H   0  0  0  0  0  0  0  0  0  0  0  0
   -0.4882    1.7367   -0.2696 H   0  0  0  0  0  0  0  0  0  0  0  0
   -5.7452    1.0170    0.0280 H   0  0  0  0  0  0  0  0  0  0  0  0
  1  2  1  0
  3  1  2  0
  1  4  1  0
  5  3  1  0
  4  6  2  0
  7  5  2  0
  6  7  1  0
  8  7  1  0
  8  9  1  0
  8 10  2  0
  9 11  1  0
  2 12  2  0
 13  2  1  0
 12 14  1  0
 15 13  2  0
 13 16  1  0
 14 17  1  0
 14 18  2  0
 18 15  1  0
 15 19  1  0
  3 20  1  0
  4 21  1  0
  5 22  1  0
  6 23  1  0
 11 24  1  0
 11 25  1  0
 11 26  1  0
 12 27  1  0
 16 28  1  0
 18 29  1  0
M  END
$$$$

     RDKit          3D

 28 29  0  0  0  0  0  0  0  0999 V2000
   -0.6502    0.2850   -0.0475 C   0  0  0  0  0  0  0  0  0  0  0  0
   -2.0686   -0.0706   -0.0350 C   0  0  0  0  0  0  0  0  0  0  0  0
   -0.1606    1.1006    0.9146 C   0  0  0  0  0  0  0  0  0  0  0  0
    0.2884   -0.2557   -1.0381 C   0  0  0  0  0  0  0  0  0  0  0  0
    1.2664    1.3655    1.0207 C   0  0  0  0  0  0  0  0  0  0  0  0
    1.6091   -0.0193   -0.9419 C   0  0  0  0  0  0  0  0  0  0  0  0
    2.1189    0.7826    0.1572 C   0  0  0  0  0  0  0  0  0  0  0  0
    3.5675    0.9954    0.3435 C   0  0  0  0  0  0  0  0  0  0  0  0
    4.0606    0.0464    1.1768 O   0  0  0  0  0  0  0  0  0  0  0  0
    4.2085    1.8959   -0.1727 O   0  0  0  0  0  0  0  0  0  0  0  0
    5.2126   -0.5975    0.6384 C   0  0  0  0  0  0  0  0  0  0  0  0
   -2.9449    0.6603   -0.7604 C   0  0  0  0  0  0  0  0  0  0  0  0
   -2.5852   -1.2262    0.7046 C   0  0  0  0  0  0  0  0  0  0  0  0
   -4.3517    0.2965   -0.8270 C   0  0  0  0  0  0  0  0  0  0  0  0
   -3.8874   -1.5599    0.6498 C   0  0  0  0  0  0  0  0  0  0  0  0
   -4.8111   -0.7715   -0.1497 C   0  0  0  0  0  0  0  0  0  0  0  0
   -6.6002   -1.2888   -0.1920 Br  0  0  0  0  0  0  0  0  0  0  0  0
   -0.8169    1.6241    1.6044 H   0  0  0  0  0  0  0  0  0  0  0  0
   -0.1163   -0.8464   -1.8543 H   0  0  0  0  0  0  0  0  0  0  0  0
    1.6010    2.0831    1.7634 H   0  0  0  0  0  0  0  0  0  0  0  0
    2.3074   -0.4064   -1.6760 H   0  0  0  0  0  0  0  0  0  0  0  0
    5.0123   -0.9754   -0.3697 H   0  0  0  0  0  0  0  0  0  0  0  0
    5.4639   -1.4438    1.2836 H   0  0  0  0  0  0  0  0  0  0  0  0
    6.0612    0.0935    0.6234 H   0  0  0  0  0  0  0  0  0  0  0  0
   -2.6318    1.5424   -1.3118 H   0  0  0  0  0  0  0  0  0  0  0  0
   -1.8856   -1.8061    1.2987 H   0  0  0  0  0  0  0  0  0  0  0  0
   -5.0055    0.9131   -1.4347 H   0  0  0  0  0  0  0  0  0  0  0  0
   -4.2619   -2.4167    1.1999 H   0  0  0  0  0  0  0  0  0  0  0  0
  1  2  1  0
  3  1  2  0
  1  4  1  0
  5  3  1  0
  4  6  2  0
  7  5  2  0
  6  7  1  0
  8  7  1  0
  8  9  1  0
  8 10  2  0
  9 11  1  0
  2 12  2  0
 13  2  1  0
 12 14  1  0
 15 13  2  0
 14 16  2  0
 16 15  1  0
 16 17  1  0
  3 18  1  0
  4 19  1  0
  5 20  1  0
  6 21  1  0
 11 22  1  0
 11 23  1  0
 11 24  1  0
 12 25  1  0
 13 26  1  0
 14 27  1  0
 15 28  1  0
M  END
$$$$

     RDKit          3D

 29 30  0  0  0  0  0  0  0  0999 V2000
   -0.6362   -0.0245    0.0629 C   0  0  0  0  0  0  0  0  0  0  0  0
   -2.0752    0.1873   -0.1111 C   0  0  0  0  0  0  0  0  0  0  0  0
    0.2375    0.7914   -0.5705 C   0  0  0  0  0  0  0  0  0  0  0  0
   -0.0944   -1.1666    0.8095 C   0  0  0  0  0  0  0  0  0  0  0  0
    1.6420    0.4317   -0.6919 C   0  0  0  0  0  0  0  0  0  0  0  0
    1.2182   -1.4582    0.7700 C   0  0  0  0  0  0  0  0  0  0  0  0
    2.1203   -0.6229   -0.0052 C   0  0  0  0  0  0  0  0  0  0  0  0
    3.5593   -0.9367   -0.1076 C   0  0  0  0  0  0  0  0  0  0  0  0
    4.1949   -0.5034    1.0085 O   0  0  0  0  0  0  0  0  0  0  0  0
    4.0788   -1.5129   -1.0490 O   0  0  0  0  0  0  0  0  0  0  0  0
    5.3525    0.2706    0.7034 C   0  0  0  0  0  0  0  0  0  0  0  0
   -2.7277    0.9379    0.8080 C   0  0  0  0  0  0  0  0  0  0  0  0
   -2.8650   -0.3385   -1.2411 C   0  0  0  0  0  0  0  0  0  0  0  0
   -4.1006    1.3652    0.5956 C   0  0  0  0  0  0  0  0  0  0  0  0
   -4.1494    0.0176   -1.4091 C   0  0  0  0  0  0  0  0  0  0  0  0
   -2.2625   -1.2095   -2.1239 O   0  0  0  0  0  0  0  0  0  0  0  0
   -4.7857    0.9209   -0.4708 C   0  0  0  0  0  0  0  0  0  0  0  0
   -0.0866    1.7153   -1.0424 H   0  0  0  0  0  0  0  0  0  0  0  0
   -0.7844   -1.7714    1.3909 H   0  0  0  0  0  0  0  0  0  0  0  0
    2.2624    1.0100   -1.3695 H   0  0  0  0  0  0  0  0  0  0  0  0
    1.6282   -2.3016    1.3164 H   0  0  0  0  0  0  0  0  0  0  0  0
    6.1354   -0.3679    0.2823 H   0  0  0  0  0  0  0  0  0  0  0  0
    5.7243    0.7104    1.6328 H   0  0  0  0  0  0  0  0  0  0  0  0
    5.1077    1.0802    0.0080 H   0  0  0  0  0  0  0  0  0  0  0  0
   -2.2536    1.2410    1.7371 H   0  0  0  0  0  0  0  0  0  0  0  0
   -4.5520    2.0369    1.3180 H   0  0  0  0  0  0  0  0  0  0  0  0
   -4.7310   -0.3675   -2.2391 H   0  0  0  0  0  0  0  0  0  0  0  0
   -1.3440   -1.3522   -1.8392 H   0  0  0  0  0  0  0  0  0  0  0  0
   -5.8131    1.2174   -0.6518 H   0  0  0  0  0  0  0  0  0  0  0  0
  1  2  1  0
  3  1  2  0
  1  4  1  0
  5  3  1  0
  4  6  2  0
  7  5  2  0
  6  7  1  0
  8  7  1  0
  8  9  1  0
  8 10  2  0
  9 11  1  0
  2 12  2  0
 13  2  1  0
 12 14  1  0
 15 13  2  0
 13 16  1  0
 14 17  2  0
 17 15  1  0
  3 18  1  0
  4 19  1  0
  5 20  1  0
  6 21  1  0
 11 22  1  0
 11 23  1  0
 11 24  1  0
 12 25  1  0
 14 26  1  0
 15 27  1  0
 16 28  1  0
 17 29  1  0
M  END
$$$$

     RDKit          3D

 32 33  0  0  0  0  0  0  0  0999 V2000
    0.0132   -0.0961    0.1032 C   0  0  0  0  0  0  0  0  0  0  0  0
   -1.4443    0.0020   -0.0033 C   0  0  0  0  0  0  0  0  0  0  0  0
    0.7862    0.3591   -0.9095 C   0  0  0  0  0  0  0  0  0  0  0  0
    0.6757   -0.7750    1.2238 C   0  0  0  0  0  0  0  0  0  0  0  0
    2.1952    0.0062   -0.9906 C   0  0  0  0  0  0  0  0  0  0  0  0
    1.9964   -1.0291    1.1949 C   0  0  0  0  0  0  0  0  0  0  0  0
    2.7870   -0.6110    0.0492 C   0  0  0  0  0  0  0  0  0  0  0  0
    4.2358   -0.8847   -0.0253 C   0  0  0  0  0  0  0  0  0  0  0  0
    4.9062    0.0307    0.7164 O   0  0  0  0  0  0  0  0  0  0  0  0
    4.7370   -1.8061   -0.6481 O   0  0  0  0  0  0  0  0  0  0  0  0
    5.9703    0.6383   -0.0117 C   0  0  0  0  0  0  0  0  0  0  0  0
   -2.0571    1.0751    0.5484 C   0  0  0  0  0  0  0  0  0  0  0  0
   -2.2952   -0.9621   -0.7224 C   0  0  0  0  0  0  0  0  0  0  0  0
   -3.4354    1.4033    0.2240 C   0  0  0  0  0  0  0  0  0  0  0  0
   -3.5892   -0.6938   -0.9640 C   0  0  0  0  0  0  0  0  0  0  0  0
   -1.7400   -2.1530   -1.1404 O   0  0  0  0  0  0  0  0  0  0  0  0
   -4.1854    0.5542   -0.5046 C   0  0  0  0  0  0  0  0  0  0  0  0
   -5.6133    0.8147   -0.8699 C   0  0  0  0  0  0  0  0  0  0  0  0
    0.3725    0.9620   -1.7138 H   0  0  0  0  0  0  0  0  0  0  0  0
    0.0684   -1.0692    2.0750 H   0  0  0  0  0  0  0  0  0  0  0  0
    2.7237    0.2159   -1.9154 H   0  0  0  0  0  0  0  0  0  0  0  0
    2.4951   -1.5319    2.0172 H   0  0  0  0  0  0  0  0  0  0  0  0
    6.3646    1.4650    0.5854 H   0  0  0  0  0  0  0  0  0  0  0  0
    6.7748   -0.0842   -0.1810 H   0  0  0  0  0  0  0  0  0  0  0  0
    5.6113    1.0378   -0.9659 H   0  0  0  0  0  0  0  0  0  0  0  0
   -1.5459    1.7230    1.2544 H   0  0  0  0  0  0  0  0  0  0  0  0
   -3.8331    2.3416    0.5972 H   0  0  0  0  0  0  0  0  0  0  0  0
   -4.2073   -1.4107   -1.4939 H   0  0  0  0  0  0  0  0  0  0  0  0
   -0.8047   -2.1669   -0.8759 H   0  0  0  0  0  0  0  0  0  0  0  0
   -6.2637    0.0317   -0.4658 H   0  0  0  0  0  0  0  0  0  0  0  0
   -5.7338    0.8391   -1.9581 H   0  0  0  0  0  0  0  0  0  0  0  0
   -5.9648    1.7741   -0.4754 H   0  0  0  0  0  0  0  0  0  0  0  0
  1  2  1  0
  3  1  2  0
  1  4  1  0
  5  3  1  0
  4  6  2  0
  7  5  2  0
  6  7  1  0
  8  7  1  0
  8  9  1  0
  8 10  2  0
  9 11  1  0
  2 12  2  0
 13  2  1  0
 12 14  1  0
 15 13  2  0
 13 16  1  0
 14 17  2  0
 17 15  1  0
 17 18  1  0
  3 19  1  0
  4 20  1  0
  5 21  1  0
  6 22  1  0
 11 23  1  0
 11 24  1  0
 11 25  1  0
 12 26  1  0
 14 27  1  0
 15 28  1  0
 16 29  1  0
 18 30  1  0
 18 31  1  0
 18 32  1  0
M  END
$$$$

     RDKit          3D

 28 29  0  0  0  0  0  0  0  0999 V2000
   -0.5593    0.0199   -0.6591 C   0  0  0  0  0  0  0  0  0  0  0  0
   -1.9747   -0.2706   -0.4361 C   0  0  0  0  0  0  0  0  0  0  0  0
    0.3288   -0.9993   -0.7192 C   0  0  0  0  0  0  0  0  0  0  0  0
   -0.0377    1.3881   -0.7626 C   0  0  0  0  0  0  0  0  0  0  0  0
    1.7588   -0.7500   -0.5959 C   0  0  0  0  0  0  0  0  0  0  0  0
    1.2835    1.6277   -0.6784 C   0  0  0  0  0  0  0  0  0  0  0  0
    2.2027    0.5173   -0.4937 C   0  0  0  0  0  0  0  0  0  0  0  0
    3.6143    0.7377   -0.1239 C   0  0  0  0  0  0  0  0  0  0  0  0
    3.6962    1.0555    1.1916 O   0  0  0  0  0  0  0  0  0  0  0  0
    4.5546    0.6575   -0.8974 O   0  0  0  0  0  0  0  0  0  0  0  0
    4.6140    0.2176    1.8892 C   0  0  0  0  0  0  0  0  0  0  0  0
   -2.4583   -0.2922    0.8281 C   0  0  0  0  0  0  0  0  0  0  0  0
   -2.9245   -0.4955   -1.5282 C   0  0  0  0  0  0  0  0  0  0  0  0
   -3.8764   -0.4894    1.0873 C   0  0  0  0  0  0  0  0  0  0  0  0
   -4.2324   -0.6897   -1.2950 C   0  0  0  0  0  0  0  0  0  0  0  0
   -2.4595   -0.5074   -2.7950 F   0  0  0  0  0  0  0  0  0  0  0  0
   -4.7304   -0.6809    0.0672 C   0  0  0  0  0  0  0  0  0  0  0  0
    0.0212   -1.9964   -1.0230 H   0  0  0  0  0  0  0  0  0  0  0  0
   -0.7463    2.1962   -0.9151 H   0  0  0  0  0  0  0  0  0  0  0  0
    2.4358   -1.5728   -0.8062 H   0  0  0  0  0  0  0  0  0  0  0  0
    1.6858    2.6318   -0.7593 H   0  0  0  0  0  0  0  0  0  0  0  0
    4.5222    0.4263    2.9586 H   0  0  0  0  0  0  0  0  0  0  0  0
    5.6400    0.4372    1.5781 H   0  0  0  0  0  0  0  0  0  0  0  0
    4.3836   -0.8393    1.7194 H   0  0  0  0  0  0  0  0  0  0  0  0
   -1.8070   -0.1647    1.6882 H   0  0  0  0  0  0  0  0  0  0  0  0
   -4.2185   -0.4788    2.1171 H   0  0  0  0  0  0  0  0  0  0  0  0
   -4.9250   -0.8548   -2.1113 H   0  0  0  0  0  0  0  0  0  0  0  0
   -5.7916   -0.8309    0.2347 H   0  0  0  0  0  0  0  0  0  0  0  0
  1  2  1  0
  3  1  2  0
  1  4  1  0
  5  3  1  0
  4  6  2  0
  7  5  2  0
  6  7  1  0
  8  7  1  0
  8  9  1  0
  8 10  2  0
  9 11  1  0
  2 12  2  0
 13  2  1  0
 12 14  1  0
 15 13  2  0
 13 16  1  0
 14 17  2  0
 17 15  1  0
  3 18  1  0
  4 19  1  0
  5 20  1  0
  6 21  1  0
 11 22  1  0
 11 23  1  0
 11 24  1  0
 12 25  1  0
 14 26  1  0
 15 27  1  0
 17 28  1  0
M  END
$$$$

     RDKit          3D

 28 29  0  0  0  0  0  0  0  0999 V2000
   -0.6034   -0.3423    0.3515 C   0  0  0  0  0  0  0  0  0  0  0  0
   -2.0624   -0.2415    0.3668 C   0  0  0  0  0  0  0  0  0  0  0  0
   -0.0079   -1.2453   -0.4612 C   0  0  0  0  0  0  0  0  0  0  0  0
    0.2556    0.5434    1.1464 C   0  0  0  0  0  0  0  0  0  0  0  0
    1.4385   -1.2768   -0.6174 C   0  0  0  0  0  0  0  0  0  0  0  0
    1.5932    0.5206    1.0051 C   0  0  0  0  0  0  0  0  0  0  0  0
    2.2012   -0.3932    0.0531 C   0  0  0  0  0  0  0  0  0  0  0  0
    3.6578   -0.3956   -0.1846 C   0  0  0  0  0  0  0  0  0  0  0  0
    3.9492    0.4368   -1.2144 O   0  0  0  0  0  0  0  0  0  0  0  0
    4.4633   -1.0568    0.4499 O   0  0  0  0  0  0  0  0  0  0  0  0
    4.9980    1.3466   -0.8919 C   0  0  0  0  0  0  0  0  0  0  0  0
   -2.7689   -0.9482    1.2800 C   0  0  0  0  0  0  0  0  0  0  0  0
   -2.8017    0.6290   -0.5578 C   0  0  0  0  0  0  0  0  0  0  0  0
   -4.2193   -0.8578    1.3379 C   0  0  0  0  0  0  0  0  0  0  0  0
   -4.1430    0.7145   -0.5023 C   0  0  0  0  0  0  0  0  0  0  0  0
   -4.8687   -0.0585    0.4791 C   0  0  0  0  0  0  0  0  0  0  0  0
   -6.2115    0.0434    0.5110 F   0  0  0  0  0  0  0  0  0  0  0  0
   -0.5816   -2.0084   -0.9801 H   0  0  0  0  0  0  0  0  0  0  0  0
   -0.2206    1.2131    1.8561 H   0  0  0  0  0  0  0  0  0  0  0  0
    1.8713   -2.0629   -1.2286 H   0  0  0  0  0  0  0  0  0  0  0  0
    2.2350    1.1647    1.5964 H   0  0  0  0  0  0  0  0  0  0  0  0
    4.7806    1.8773    0.0410 H   0  0  0  0  0  0  0  0  0  0  0  0
    5.0747    2.0799   -1.6994 H   0  0  0  0  0  0  0  0  0  0  0  0
    5.9510    0.8141   -0.8129 H   0  0  0  0  0  0  0  0  0  0  0  0
   -2.2814   -1.6065    1.9936 H   0  0  0  0  0  0  0  0  0  0  0  0
   -2.2346    1.2004   -1.2859 H   0  0  0  0  0  0  0  0  0  0  0  0
   -4.7571   -1.4398    2.0764 H   0  0  0  0  0  0  0  0  0  0  0  0
   -4.7076    1.3497   -1.1740 H   0  0  0  0  0  0  0  0  0  0  0  0
  1  2  1  0
  3  1  2  0
  1  4  1  0
  5  3  1  0
  4  6  2  0
  7  5  2  0
  6  7  1  0
  8  7  1  0
  8  9  1  0
  8 10  2  0
  9 11  1  0
  2 12  2  0
 13  2  1  0
 12 14  1  0
 15 13  2  0
 14 16  2  0
 16 15  1  0
 16 17  1  0
  3 18  1  0
  4 19  1  0
  5 20  1  0
  6 21  1  0
 11 22  1  0
 11 23  1  0
 11 24  1  0
 12 25  1  0
 13 26  1  0
 14 27  1  0
 15 28  1  0
M  END
$$$$

     RDKit          3D

 28 29  0  0  0  0  0  0  0  0999 V2000
   -0.6714   -0.0907    0.3733 C   0  0  0  0  0  0  0  0  0  0  0  0
   -2.0594   -0.0755   -0.0874 C   0  0  0  0  0  0  0  0  0  0  0  0
    0.1382   -1.1125    0.0108 C   0  0  0  0  0  0  0  0  0  0  0  0
   -0.0953    0.9972    1.1727 C   0  0  0  0  0  0  0  0  0  0  0  0
    1.5564   -1.1003    0.3385 C   0  0  0  0  0  0  0  0  0  0  0  0
    1.2186    1.0243    1.4600 C   0  0  0  0  0  0  0  0  0  0  0  0
    2.0838   -0.0357    0.9715 C   0  0  0  0  0  0  0  0  0  0  0  0
    3.5505    0.0356    1.1217 C   0  0  0  0  0  0  0  0  0  0  0  0
    4.0584    0.9070    0.2157 O   0  0  0  0  0  0  0  0  0  0  0  0
    4.1950   -0.5885    1.9487 O   0  0  0  0  0  0  0  0  0  0  0  0
    5.0928    0.3210   -0.5702 C   0  0  0  0  0  0  0  0  0  0  0  0
   -3.0266   -0.6088    0.6934 C   0  0  0  0  0  0  0  0  0  0  0  0
   -2.4606    0.5283   -1.3628 C   0  0  0  0  0  0  0  0  0  0  0  0
   -4.4178   -0.6058    0.2722 C   0  0  0  0  0  0  0  0  0  0  0  0
   -3.7482    0.5374   -1.7503 C   0  0  0  0  0  0  0  0  0  0  0  0
   -4.7648   -0.0545   -0.9028 C   0  0  0  0  0  0  0  0  0  0  0  0
   -0.2607   -2.0156   -0.4432 H   0  0  0  0  0  0  0  0  0  0  0  0
   -0.7621    1.7773    1.5272 H   0  0  0  0  0  0  0  0  0  0  0  0
    2.1212   -2.0156    0.1898 H   0  0  0  0  0  0  0  0  0  0  0  0
    1.6532    1.8223    2.0525 H   0  0  0  0  0  0  0  0  0  0  0  0
    5.3552    1.0218   -1.3674 H   0  0  0  0  0  0  0  0  0  0  0  0
    4.7529   -0.6145   -1.0267 H   0  0  0  0  0  0  0  0  0  0  0  0
    5.9813    0.1428    0.0436 H   0  0  0  0  0  0  0  0  0  0  0  0
   -2.7990   -1.0539    1.6576 H   0  0  0  0  0  0  0  0  0  0  0  0
   -1.6873    0.9683   -1.9845 H   0  0  0  0  0  0  0  0  0  0  0  0
   -5.1568   -1.0548    0.9270 H   0  0  0  0  0  0  0  0  0  0  0  0
   -4.0518    0.9822   -2.6916 H   0  0  0  0  0  0  0  0  0  0  0  0
   -5.7958   -0.0387   -1.2391 H   0  0  0  0  0  0  0  0  0  0  0  0
  1  2  1  0
  3  1  2  0
  1  4  1  0
  5  3  1  0
  4  6  2  0
  7  5  2  0
  6  7  1  0
  8  7  1  0
  8  9  1  0
  8 10  2  0
  9 11  1  0
  2 12  2  0
 13  2  1  0
 12 14  1  0
 15 13  2  0
 14 16  2  0
 16 15  1  0
  3 17  1  0
  4 18  1  0
  5 19  1  0
  6 20  1  0
 11 21  1  0
 11 22  1  0
 11 23  1  0
 12 24  1  0
 13 25  1  0
 14 26  1  0
 15 27  1  0
 16 28  1  0
M  END
$$$$

     RDKit          3D

 28 29  0  0  0  0  0  0  0  0999 V2000
   -0.6567   -0.1909   -0.0029 C   0  0  0  0  0  0  0  0  0  0  0  0
   -2.0675   -0.2611   -0.3814 C   0  0  0  0  0  0  0  0  0  0  0  0
    0.2634   -0.8637   -0.7317 C   0  0  0  0  0  0  0  0  0  0  0  0
   -0.1899    0.5577    1.1707 C   0  0  0  0  0  0  0  0  0  0  0  0
    1.6241   -1.0322   -0.2447 C   0  0  0  0  0  0  0  0  0  0  0  0
    1.0897    0.4775    1.5780 C   0  0  0  0  0  0  0  0  0  0  0  0
    2.0327   -0.3444    0.8381 C   0  0  0  0  0  0  0  0  0  0  0  0
    3.4400   -0.4747    1.2649 C   0  0  0  0  0  0  0  0  0  0  0  0
    4.1233    0.6430    0.9160 O   0  0  0  0  0  0  0  0  0  0  0  0
    3.9022   -1.4384    1.8533 O   0  0  0  0  0  0  0  0  0  0  0  0
    5.3006    0.3424    0.1712 C   0  0  0  0  0  0  0  0  0  0  0  0
   -2.8565   -1.2135    0.1715 C   0  0  0  0  0  0  0  0  0  0  0  0
   -2.6931    0.6885   -1.3081 C   0  0  0  0  0  0  0  0  0  0  0  0
   -4.2804   -1.2697   -0.1245 C   0  0  0  0  0  0  0  0  0  0  0  0
   -4.0042    0.6370   -1.5909 C   0  0  0  0  0  0  0  0  0  0  0  0
   -1.9184    1.6308   -1.8849 F   0  0  0  0  0  0  0  0  0  0  0  0
   -4.8200   -0.3789   -0.9700 C   0  0  0  0  0  0  0  0  0  0  0  0
   -6.1347   -0.4125   -1.2606 F   0  0  0  0  0  0  0  0  0  0  0  0
    0.0191   -1.3022   -1.6952 H   0  0  0  0  0  0  0  0  0  0  0  0
   -0.9066    1.1766    1.7018 H   0  0  0  0  0  0  0  0  0  0  0  0
    2.2701   -1.7357   -0.7602 H   0  0  0  0  0  0  0  0  0  0  0  0
    1.4439    1.0264    2.4444 H   0  0  0  0  0  0  0  0  0  0  0  0
    6.0429   -0.1415    0.8136 H   0  0  0  0  0  0  0  0  0  0  0  0
    5.0664   -0.2967   -0.6866 H   0  0  0  0  0  0  0  0  0  0  0  0
    5.7200    1.2818   -0.1991 H   0  0  0  0  0  0  0  0  0  0  0  0
   -2.4564   -1.9639    0.8480 H   0  0  0  0  0  0  0  0  0  0  0  0
   -4.8877   -2.0355    0.3438 H   0  0  0  0  0  0  0  0  0  0  0  0
   -4.4665    1.3369   -2.2743 H   0  0  0  0  0  0  0  0  0  0  0  0
  1  2  1  0
  3  1  2  0
  1  4  1  0
  5  3  1  0
  4  6  2  0
  7  5  2  0
  6  7  1  0
  8  7  1  0
  8  9  1  0
  8 10  2  0
  9 11  1  0
  2 12  2  0
 13  2  1  0
 12 14  1  0
 15 13  2  0
 13 16  1  0
 14 17  2  0
 17 15  1  0
 17 18  1  0
  3 19  1  0
  4 20  1  0
  5 21  1  0
  6 22  1  0
 11 23  1  0
 11 24  1  0
 11 25  1  0
 12 26  1  0
 14 27  1  0
 15 28  1  0
M  END
$$$$

     RDKit          3D

 22 22  0  0  0  0  0  0  0  0999 V2000
   -2.9637    1.2832    0.4689 O   0  0  0  0  0  0  0  0  0  0  0  0
   -1.7901    0.6539    0.1244 C   0  0  0  0  0  0  0  0  0  0  0  0
   -4.0327    0.8085   -0.3479 C   0  0  0  0  0  0  0  0  0  0  0  0
   -0.9023    1.1985   -0.7288 C   0  0  0  0  0  0  0  0  0  0  0  0
   -1.3896   -0.4444    0.9906 C   0  0  0  0  0  0  0  0  0  0  0  0
    0.4186    0.6071   -0.8789 C   0  0  0  0  0  0  0  0  0  0  0  0
   -0.1487   -0.9571    0.8966 C   0  0  0  0  0  0  0  0  0  0  0  0
    0.7937   -0.3980   -0.0629 C   0  0  0  0  0  0  0  0  0  0  0  0
    2.1694   -0.9211   -0.1817 C   0  0  0  0  0  0  0  0  0  0  0  0
    2.9167   -0.4695    0.8554 O   0  0  0  0  0  0  0  0  0  0  0  0
    2.5589   -1.6575   -1.0731 O   0  0  0  0  0  0  0  0  0  0  0  0
    4.1126    0.1698    0.4172 C   0  0  0  0  0  0  0  0  0  0  0  0
   -4.9491    1.3160   -0.0324 H   0  0  0  0  0  0  0  0  0  0  0  0
   -3.8564    1.0468   -1.4026 H   0  0  0  0  0  0  0  0  0  0  0  0
   -4.1785   -0.2699   -0.2200 H   0  0  0  0  0  0  0  0  0  0  0  0
   -1.1570    2.0642   -1.3296 H   0  0  0  0  0  0  0  0  0  0  0  0
   -2.1090   -0.8309    1.7040 H   0  0  0  0  0  0  0  0  0  0  0  0
    1.0489    0.9595   -1.6891 H   0  0  0  0  0  0  0  0  0  0  0  0
    0.1760   -1.7751    1.5310 H   0  0  0  0  0  0  0  0  0  0  0  0
    3.8901    0.9516   -0.3165 H   0  0  0  0  0  0  0  0  0  0  0  0
    4.5905    0.6326    1.2849 H   0  0  0  0  0  0  0  0  0  0  0  0
    4.8018   -0.5657   -0.0093 H   0  0  0  0  0  0  0  0  0  0  0  0
  1  2  1  0
  1  3  1  0
  4  2  2  0
  2  5  1  0
  6  4  1  0
  5  7  2  0
  8  6  2  0
  7  8  1  0
  9  8  1  0
  9 10  1  0
  9 11  2  0
 10 12  1  0
  3 13  1  0
  3 14  1  0
  3 15  1  0
  4 16  1  0
  5 17  1  0
  6 18  1  0
  7 19  1  0
 12 20  1  0
 12 21  1  0
 12 22  1  0
M  END
$$$$

     RDKit          3D

 32 33  0  0  0  0  0  0  0  0999 V2000
    5.3170    0.2251    0.2771 O   0  0  0  0  0  0  0  0  0  0  0  0
    3.9485    0.1256    0.1824 C   0  0  0  0  0  0  0  0  0  0  0  0
    5.6912    0.5722    1.6090 C   0  0  0  0  0  0  0  0  0  0  0  0
    3.1747    1.1424   -0.2361 C   0  0  0  0  0  0  0  0  0  0  0  0
    3.4101   -1.2214    0.2219 C   0  0  0  0  0  0  0  0  0  0  0  0
    1.7647    0.9161   -0.5120 C   0  0  0  0  0  0  0  0  0  0  0  0
    2.1073   -1.4302   -0.0396 C   0  0  0  0  0  0  0  0  0  0  0  0
    1.2155   -0.3119   -0.3679 C   0  0  0  0  0  0  0  0  0  0  0  0
   -0.2250   -0.4834   -0.5523 C   0  0  0  0  0  0  0  0  0  0  0  0
   -1.0515   -0.3641    0.5124 C   0  0  0  0  0  0  0  0  0  0  0  0
   -0.8203   -0.7935   -1.8576 C   0  0  0  0  0  0  0  0  0  0  0  0
   -2.4963   -0.4483    0.3551 C   0  0  0  0  0  0  0  0  0  0  0  0
   -2.1551   -0.8559   -2.0120 C   0  0  0  0  0  0  0  0  0  0  0  0
   -3.0232   -0.6116   -0.8729 C   0  0  0  0  0  0  0  0  0  0  0  0
   -4.4871   -0.5021   -1.0283 C   0  0  0  0  0  0  0  0  0  0  0  0
   -4.7983    0.7033   -1.5651 O   0  0  0  0  0  0  0  0  0  0  0  0
   -5.2844   -1.3758   -0.7288 O   0  0  0  0  0  0  0  0  0  0  0  0
   -5.7551    1.4091   -0.7795 C   0  0  0  0  0  0  0  0  0  0  0  0
    6.7833    0.6212    1.6505 H   0  0  0  0  0  0  0  0  0  0  0  0
    5.3563   -0.1874    2.3241 H   0  0  0  0  0  0  0  0  0  0  0  0
    5.2949    1.5557    1.8844 H   0  0  0  0  0  0  0  0  0  0  0  0
    3.5993    2.1117   -0.4704 H   0  0  0  0  0  0  0  0  0  0  0  0
    4.0791   -2.0422    0.4539 H   0  0  0  0  0  0  0  0  0  0  0  0
    1.1970    1.7491   -0.9158 H   0  0  0  0  0  0  0  0  0  0  0  0
    1.6884   -2.4312   -0.0230 H   0  0  0  0  0  0  0  0  0  0  0  0
   -0.6635   -0.3028    1.5255 H   0  0  0  0  0  0  0  0  0  0  0  0
   -0.1514   -0.9747   -2.6934 H   0  0  0  0  0  0  0  0  0  0  0  0
   -3.1025   -0.5250    1.2526 H   0  0  0  0  0  0  0  0  0  0  0  0
   -2.6050   -1.0878   -2.9716 H   0  0  0  0  0  0  0  0  0  0  0  0
   -6.7300    0.9148   -0.8336 H   0  0  0  0  0  0  0  0  0  0  0  0
   -5.8538    2.4190   -1.1871 H   0  0  0  0  0  0  0  0  0  0  0  0
   -5.4248    1.4843    0.2617 H   0  0  0  0  0  0  0  0  0  0  0  0
  1  2  1  0
  1  3  1  0
  4  2  2  0
  2  5  1  0
  6  4  1  0
  5  7  2  0
  8  6  2  0
  7  8  1  0
  9  8  1  0
 10  9  2  0
  9 11  1  0
 12 10  1  0
 11 13  2  0
 14 12  2  0
 13 14  1  0
 15 14  1  0
 15 16  1  0
 15 17  2  0
 16 18  1  0
  3 19  1  0
  3 20  1  0
  3 21  1  0
  4 22  1  0
  5 23  1  0
  6 24  1  0
  7 25  1  0
 10 26  1  0
 11 27  1  0
 12 28  1  0
 13 29  1  0
 18 30  1  0
 18 31  1  0
 18 32  1  0
M  END
$$$$

     RDKit          3D

 37 38  0  0  0  0  0  0  0  0999 V2000
    4.6674   -0.3097    0.3631 C   0  0  0  0  0  0  0  0  0  0  0  0
    3.1538   -0.4088    0.3495 C   0  0  0  0  0  0  0  0  0  0  0  0
    5.2141   -0.0717    1.7735 C   0  0  0  0  0  0  0  0  0  0  0  0
    5.1866    0.7528   -0.6099 C   0  0  0  0  0  0  0  0  0  0  0  0
    2.5106   -1.5329   -0.0289 C   0  0  0  0  0  0  0  0  0  0  0  0
    2.3513    0.7563    0.7147 C   0  0  0  0  0  0  0  0  0  0  0  0
    1.0723   -1.5335   -0.2362 C   0  0  0  0  0  0  0  0  0  0  0  0
    1.0139    0.7357    0.5769 C   0  0  0  0  0  0  0  0  0  0  0  0
    0.3231   -0.4508    0.0678 C   0  0  0  0  0  0  0  0  0  0  0  0
   -1.1218   -0.4876   -0.1533 C   0  0  0  0  0  0  0  0  0  0  0  0
   -1.9402   -0.8547    0.8599 C   0  0  0  0  0  0  0  0  0  0  0  0
   -1.7344   -0.0832   -1.4243 C   0  0  0  0  0  0  0  0  0  0  0  0
   -3.3873   -0.7751    0.7236 C   0  0  0  0  0  0  0  0  0  0  0  0
   -3.0705    0.0086   -1.5506 C   0  0  0  0  0  0  0  0  0  0  0  0
   -3.9231   -0.2942   -0.4138 C   0  0  0  0  0  0  0  0  0  0  0  0
   -5.3801   -0.0621   -0.4601 C   0  0  0  0  0  0  0  0  0  0  0  0
   -5.6336    1.2624   -0.3197 O   0  0  0  0  0  0  0  0  0  0  0  0
   -6.2178   -0.9353   -0.6163 O   0  0  0  0  0  0  0  0  0  0  0  0
   -6.5704    1.5219    0.7225 C   0  0  0  0  0  0  0  0  0  0  0  0
    5.0820   -1.2700    0.0255 H   0  0  0  0  0  0  0  0  0  0  0  0
    6.3036   -0.1875    1.7828 H   0  0  0  0  0  0  0  0  0  0  0  0
    4.9834    0.9345    2.1394 H   0  0  0  0  0  0  0  0  0  0  0  0
    4.8033   -0.7980    2.4835 H   0  0  0  0  0  0  0  0  0  0  0  0
    6.2737    0.6683   -0.7188 H   0  0  0  0  0  0  0  0  0  0  0  0
    4.7485    0.6236   -1.6058 H   0  0  0  0  0  0  0  0  0  0  0  0
    4.9647    1.7687   -0.2659 H   0  0  0  0  0  0  0  0  0  0  0  0
    3.0354   -2.4731   -0.1639 H   0  0  0  0  0  0  0  0  0  0  0  0
    2.8473    1.6414    1.0983 H   0  0  0  0  0  0  0  0  0  0  0  0
    0.6231   -2.4504   -0.6064 H   0  0  0  0  0  0  0  0  0  0  0  0
    0.4133    1.5990    0.8449 H   0  0  0  0  0  0  0  0  0  0  0  0
   -1.5491   -1.3120    1.7647 H   0  0  0  0  0  0  0  0  0  0  0  0
   -1.0766    0.1363   -2.2597 H   0  0  0  0  0  0  0  0  0  0  0  0
   -3.9970   -1.2417    1.4913 H   0  0  0  0  0  0  0  0  0  0  0  0
   -3.5327    0.3034   -2.4867 H   0  0  0  0  0  0  0  0  0  0  0  0
   -6.6152    2.6029    0.8805 H   0  0  0  0  0  0  0  0  0  0  0  0
   -6.2556    1.0459    1.6571 H   0  0  0  0  0  0  0  0  0  0  0  0
   -7.5658    1.1704    0.4338 H   0  0  0  0  0  0  0  0  0  0  0  0
  1  2  1  0
  1  3  1  0
  1  4  1  0
  5  2  2  0
  2  6  1  0
  7  5  1  0
  6  8  2  0
  9  7  2  0
  8  9  1  0
 10  9  1  0
 11 10  2  0
 10 12  1  0
 13 11  1  0
 12 14  2  0
 15 13  2  0
 14 15  1  0
 16 15  1  0
 16 17  1  0
 16 18  2  0
 17 19  1  0
  1 20  1  0
  3 21  1  0
  3 22  1  0
  3 23  1  0
  4 24  1  0
  4 25  1  0
  4 26  1  0
  5 27  1  0
  6 28  1  0
  7 29  1  0
  8 30  1  0
 11 31  1  0
 12 32  1  0
 13 33  1  0
 14 34  1  0
 19 35  1  0
 19 36  1  0
 19 37  1  0
M  END
$$$$

     RDKit          3D

 39 41  0  0  0  0  0  0  0  0999 V2000
   -2.6899    0.0506    0.2151 C   0  0  0  0  0  0  0  0  0  0  0  0
   -4.0477    0.5975    0.1887 C   0  0  0  0  0  0  0  0  0  0  0  0
   -1.9666    0.0064   -0.9248 C   0  0  0  0  0  0  0  0  0  0  0  0
   -2.0172   -0.3329    1.4579 C   0  0  0  0  0  0  0  0  0  0  0  0
   -0.5188   -0.1201   -0.8829 C   0  0  0  0  0  0  0  0  0  0  0  0
   -0.6892   -0.5419    1.4854 C   0  0  0  0  0  0  0  0  0  0  0  0
    0.1203   -0.4117    0.2717 C   0  0  0  0  0  0  0  0  0  0  0  0
    1.5637   -0.6446    0.2591 C   0  0  0  0  0  0  0  0  0  0  0  0
    2.4080    0.3897    0.4794 C   0  0  0  0  0  0  0  0  0  0  0  0
    2.1438   -1.9733    0.0280 C   0  0  0  0  0  0  0  0  0  0  0  0
    3.8511    0.2086    0.4129 C   0  0  0  0  0  0  0  0  0  0  0  0
    3.4759   -2.1427   -0.0521 C   0  0  0  0  0  0  0  0  0  0  0  0
    4.3571   -0.9968    0.0914 C   0  0  0  0  0  0  0  0  0  0  0  0
    5.8119   -1.1138   -0.1284 C   0  0  0  0  0  0  0  0  0  0  0  0
    6.0692   -1.1099   -1.4595 O   0  0  0  0  0  0  0  0  0  0  0  0
    6.6414   -1.2134    0.7604 O   0  0  0  0  0  0  0  0  0  0  0  0
    7.1141   -0.2036   -1.8052 C   0  0  0  0  0  0  0  0  0  0  0  0
   -5.0828   -0.2647    0.0502 C   0  0  0  0  0  0  0  0  0  0  0  0
   -4.3672    2.0331    0.2577 C   0  0  0  0  0  0  0  0  0  0  0  0
   -6.4291    0.2047   -0.2673 C   0  0  0  0  0  0  0  0  0  0  0  0
   -5.6163    2.4710    0.0322 C   0  0  0  0  0  0  0  0  0  0  0  0
   -3.3609    2.9224    0.5659 O   0  0  0  0  0  0  0  0  0  0  0  0
   -7.9288   -1.1534   -0.6739 I   0  0  0  0  0  0  0  0  0  0  0  0
   -6.6769    1.5290   -0.2722 C   0  0  0  0  0  0  0  0  0  0  0  0
   -2.4398    0.0331   -1.9024 H   0  0  0  0  0  0  0  0  0  0  0  0
   -2.6186   -0.4459    2.3549 H   0  0  0  0  0  0  0  0  0  0  0  0
    0.0164   -0.0338   -1.8245 H   0  0  0  0  0  0  0  0  0  0  0  0
   -0.1893   -0.8309    2.4047 H   0  0  0  0  0  0  0  0  0  0  0  0
    2.0431    1.3612    0.8012 H   0  0  0  0  0  0  0  0  0  0  0  0
    1.4660   -2.8160   -0.0731 H   0  0  0  0  0  0  0  0  0  0  0  0
    4.4836    1.0256    0.7462 H   0  0  0  0  0  0  0  0  0  0  0  0
    3.9143   -3.1207   -0.2204 H   0  0  0  0  0  0  0  0  0  0  0  0
    6.9258    0.7897   -1.3843 H   0  0  0  0  0  0  0  0  0  0  0  0
    7.1460   -0.1197   -2.8946 H   0  0  0  0  0  0  0  0  0  0  0  0
    8.0780   -0.5881   -1.4567 H   0  0  0  0  0  0  0  0  0  0  0  0
   -4.9423   -1.3309    0.2087 H   0  0  0  0  0  0  0  0  0  0  0  0
   -5.8554    3.5273    0.0821 H   0  0  0  0  0  0  0  0  0  0  0  0
   -2.5347    2.4226    0.6869 H   0  0  0  0  0  0  0  0  0  0  0  0
   -7.6584    1.9362   -0.4918 H   0  0  0  0  0  0  0  0  0  0  0  0
  1  2  1  0
  3  1  2  0
  1  4  1  0
  5  3  1  0
  4  6  2  0
  7  5  2  0
  6  7  1  0
  8  7  1  0
  9  8  2  0
  8 10  1  0
 11  9  1  0
 10 12  2  0
 13 11  2  0
 12 13  1  0
 14 13  1  0
 14 15  1  0
 14 16  2  0
 15 17  1  0
  2 18  2  0
 19  2  1  0
 18 20  1  0
 21 19  2  0
 19 22  1  0
 20 23  1  0
 20 24  2  0
 24 21  1  0
  3 25  1  0
  4 26  1  0
  5 27  1  0
  6 28  1  0
  9 29  1  0
 10 30  1  0
 11 31  1  0
 12 32  1  0
 17 33  1  0
 17 34  1  0
 17 35  1  0
 18 36  1  0
 21 37  1  0
 22 38  1  0
 24 39  1  0
M  END
$$$$

     RDKit          3D

 38 40  0  0  0  0  0  0  0  0999 V2000
   -2.7637    0.2523   -0.1106 C   0  0  0  0  0  0  0  0  0  0  0  0
   -4.2147    0.4530   -0.0606 C   0  0  0  0  0  0  0  0  0  0  0  0
   -2.2465   -0.9676    0.1552 C   0  0  0  0  0  0  0  0  0  0  0  0
   -1.8266    1.3353   -0.4170 C   0  0  0  0  0  0  0  0  0  0  0  0
   -0.8122   -1.1609    0.2956 C   0  0  0  0  0  0  0  0  0  0  0  0
   -0.4985    1.1471   -0.3269 C   0  0  0  0  0  0  0  0  0  0  0  0
    0.0540   -0.1474    0.0757 C   0  0  0  0  0  0  0  0  0  0  0  0
    1.4903   -0.3825    0.2151 C   0  0  0  0  0  0  0  0  0  0  0  0
    2.0940   -0.1294    1.3992 C   0  0  0  0  0  0  0  0  0  0  0  0
    2.3256   -0.8377   -0.9028 C   0  0  0  0  0  0  0  0  0  0  0  0
    3.5385   -0.2305    1.5433 C   0  0  0  0  0  0  0  0  0  0  0  0
    3.6624   -0.9231   -0.7788 C   0  0  0  0  0  0  0  0  0  0  0  0
    4.2935   -0.5589    0.4783 C   0  0  0  0  0  0  0  0  0  0  0  0
    5.7620   -0.5519    0.6255 C   0  0  0  0  0  0  0  0  0  0  0  0
    6.2397    0.6843    0.3392 O   0  0  0  0  0  0  0  0  0  0  0  0
    6.4303   -1.5153    0.9627 O   0  0  0  0  0  0  0  0  0  0  0  0
    7.3092    0.6440   -0.6021 C   0  0  0  0  0  0  0  0  0  0  0  0
   -4.7679    0.7992    1.1257 C   0  0  0  0  0  0  0  0  0  0  0  0
   -5.1403    0.1713   -1.1776 C   0  0  0  0  0  0  0  0  0  0  0  0
   -6.1504    0.4673    1.4204 C   0  0  0  0  0  0  0  0  0  0  0  0
   -6.4509   -0.0258   -0.9264 C   0  0  0  0  0  0  0  0  0  0  0  0
   -4.4815    0.1252   -2.9282 Br  0  0  0  0  0  0  0  0  0  0  0  0
   -6.9630    0.0666    0.4290 C   0  0  0  0  0  0  0  0  0  0  0  0
   -2.8779   -1.8479    0.2347 H   0  0  0  0  0  0  0  0  0  0  0  0
   -2.2340    2.2926   -0.7264 H   0  0  0  0  0  0  0  0  0  0  0  0
   -0.4671   -2.1627    0.5347 H   0  0  0  0  0  0  0  0  0  0  0  0
    0.1950    1.9491   -0.5595 H   0  0  0  0  0  0  0  0  0  0  0  0
    1.5192    0.1079    2.2902 H   0  0  0  0  0  0  0  0  0  0  0  0
    1.8305   -1.1098   -1.8301 H   0  0  0  0  0  0  0  0  0  0  0  0
    3.9662   -0.0946    2.5318 H   0  0  0  0  0  0  0  0  0  0  0  0
    4.2845   -1.2695   -1.5970 H   0  0  0  0  0  0  0  0  0  0  0  0
    7.5420    1.6704   -0.8987 H   0  0  0  0  0  0  0  0  0  0  0  0
    8.2004    0.2030   -0.1450 H   0  0  0  0  0  0  0  0  0  0  0  0
    7.0214    0.0798   -1.4955 H   0  0  0  0  0  0  0  0  0  0  0  0
   -4.1975    1.3174    1.8910 H   0  0  0  0  0  0  0  0  0  0  0  0
   -6.5021    0.5624    2.4422 H   0  0  0  0  0  0  0  0  0  0  0  0
   -7.1604   -0.2330   -1.7205 H   0  0  0  0  0  0  0  0  0  0  0  0
   -8.0037   -0.1796    0.6110 H   0  0  0  0  0  0  0  0  0  0  0  0
  1  2  1  0
  3  1  2  0
  1  4  1  0
  5  3  1  0
  4  6  2  0
  7  5  2  0
  6  7  1  0
  8  7  1  0
  9  8  2  0
  8 10  1  0
 11  9  1  0
 10 12  2  0
 13 11  2  0
 12 13  1  0
 14 13  1  0
 14 15  1  0
 14 16  2  0
 15 17  1  0
  2 18  2  0
 19  2  1  0
 18 20  1  0
 21 19  2  0
 19 22  1  0
 20 23  2  0
 23 21  1  0
  3 24  1  0
  4 25  1  0
  5 26  1  0
  6 27  1  0
  9 28  1  0
 10 29  1  0
 11 30  1  0
 12 31  1  0
 17 32  1  0
 17 33  1  0
 17 34  1  0
 18 35  1  0
 20 36  1  0
 21 37  1  0
 23 38  1  0
M  END
$$$$

     RDKit          3D

 41 43  0  0  0  0  0  0  0  0999 V2000
    2.0899    0.1857   -0.1140 C   0  0  0  0  0  0  0  0  0  0  0  0
    3.5404    0.3425   -0.0166 C   0  0  0  0  0  0  0  0  0  0  0  0
    1.5324   -0.1435   -1.3000 C   0  0  0  0  0  0  0  0  0  0  0  0
    1.2018    0.3298    1.0407 C   0  0  0  0  0  0  0  0  0  0  0  0
    0.1001   -0.3617   -1.4241 C   0  0  0  0  0  0  0  0  0  0  0  0
   -0.1228    0.1311    0.9254 C   0  0  0  0  0  0  0  0  0  0  0  0
   -0.7216   -0.2359   -0.3590 C   0  0  0  0  0  0  0  0  0  0  0  0
   -2.1601   -0.4351   -0.5297 C   0  0  0  0  0  0  0  0  0  0  0  0
   -2.6938   -1.6570   -0.3004 C   0  0  0  0  0  0  0  0  0  0  0  0
   -3.0697    0.6595   -0.8887 C   0  0  0  0  0  0  0  0  0  0  0  0
   -4.1338   -1.8654   -0.3268 C   0  0  0  0  0  0  0  0  0  0  0  0
   -4.4021    0.4753   -0.9066 C   0  0  0  0  0  0  0  0  0  0  0  0
   -4.9537   -0.8250   -0.5658 C   0  0  0  0  0  0  0  0  0  0  0  0
   -6.4114   -1.0434   -0.4897 C   0  0  0  0  0  0  0  0  0  0  0  0
   -6.8344   -0.8354    0.7816 O   0  0  0  0  0  0  0  0  0  0  0  0
   -7.1143   -1.3692   -1.4322 O   0  0  0  0  0  0  0  0  0  0  0  0
   -7.9529    0.0462    0.8399 C   0  0  0  0  0  0  0  0  0  0  0  0
    4.0914    1.5661   -0.1796 C   0  0  0  0  0  0  0  0  0  0  0  0
    4.4352   -0.7751    0.2950 C   0  0  0  0  0  0  0  0  0  0  0  0
    5.5238    1.7711   -0.0408 C   0  0  0  0  0  0  0  0  0  0  0  0
    5.7610   -0.5892    0.4213 C   0  0  0  0  0  0  0  0  0  0  0  0
    6.3386    0.7379    0.2488 C   0  0  0  0  0  0  0  0  0  0  0  0
    7.8210    0.8742    0.4055 C   0  0  0  0  0  0  0  0  0  0  0  0
    2.1337   -0.2585   -2.1973 H   0  0  0  0  0  0  0  0  0  0  0  0
    1.6446    0.6015    1.9937 H   0  0  0  0  0  0  0  0  0  0  0  0
   -0.2777   -0.6320   -2.4060 H   0  0  0  0  0  0  0  0  0  0  0  0
   -0.7786    0.2383    1.7835 H   0  0  0  0  0  0  0  0  0  0  0  0
   -2.0664   -2.5296   -0.1407 H   0  0  0  0  0  0  0  0  0  0  0  0
   -2.6334    1.6201   -1.1452 H   0  0  0  0  0  0  0  0  0  0  0  0
   -4.5075   -2.8783   -0.2129 H   0  0  0  0  0  0  0  0  0  0  0  0
   -5.0797    1.2767   -1.1806 H   0  0  0  0  0  0  0  0  0  0  0  0
   -7.7440    0.9769    0.3023 H   0  0  0  0  0  0  0  0  0  0  0  0
   -8.8416   -0.4407    0.4262 H   0  0  0  0  0  0  0  0  0  0  0  0
   -8.1444    0.2861    1.8894 H   0  0  0  0  0  0  0  0  0  0  0  0
    3.4852    2.4344   -0.4210 H   0  0  0  0  0  0  0  0  0  0  0  0
    3.9955   -1.7592    0.4217 H   0  0  0  0  0  0  0  0  0  0  0  0
    5.9039    2.7778   -0.1801 H   0  0  0  0  0  0  0  0  0  0  0  0
    6.4173   -1.4218    0.6528 H   0  0  0  0  0  0  0  0  0  0  0  0
    8.3447    0.2477   -0.3245 H   0  0  0  0  0  0  0  0  0  0  0  0
    8.1524    1.9073    0.2547 H   0  0  0  0  0  0  0  0  0  0  0  0
    8.1314    0.5697    1.4107 H   0  0  0  0  0  0  0  0  0  0  0  0
  1  2  1  0
  3  1  2  0
  1  4  1  0
  5  3  1  0
  4  6  2  0
  7  5  2  0
  6  7  1  0
  8  7  1  0
  9  8  2  0
  8 10  1  0
 11  9  1  0
 10 12  2  0
 13 11  2  0
 12 13  1  0
 14 13  1  0
 14 15  1  0
 14 16  2  0
 15 17  1  0
  2 18  2  0
 19  2  1  0
 18 20  1  0
 21 19  2  0
 20 22  2  0
 22 21  1  0
 22 23  1  0
  3 24  1  0
  4 25  1  0
  5 26  1  0
  6 27  1  0
  9 28  1  0
 10 29  1  0
 11 30  1  0
 12 31  1  0
 17 32  1  0
 17 33  1  0
 17 34  1  0
 18 35  1  0
 19 36  1  0
 20 37  1  0
 21 38  1  0
 23 39  1  0
 23 40  1  0
 23 41  1  0
M  END
$$$$

     RDKit          3D

 38 40  0  0  0  0  0  0  0  0999 V2000
   -2.7477   -0.3113   -0.0944 C   0  0  0  0  0  0  0  0  0  0  0  0
   -4.1426   -0.4154   -0.5298 C   0  0  0  0  0  0  0  0  0  0  0  0
   -2.1237   -1.3962    0.4149 C   0  0  0  0  0  0  0  0  0  0  0  0
   -1.9688    0.9223   -0.2183 C   0  0  0  0  0  0  0  0  0  0  0  0
   -0.6827   -1.4069    0.6117 C   0  0  0  0  0  0  0  0  0  0  0  0
   -0.6450    0.9293    0.0167 C   0  0  0  0  0  0  0  0  0  0  0  0
    0.0565   -0.2934    0.4122 C   0  0  0  0  0  0  0  0  0  0  0  0
    1.5027   -0.3398    0.6218 C   0  0  0  0  0  0  0  0  0  0  0  0
    2.3184   -0.6033   -0.4251 C   0  0  0  0  0  0  0  0  0  0  0  0
    2.1193   -0.0488    1.9217 C   0  0  0  0  0  0  0  0  0  0  0  0
    3.7650   -0.5019   -0.2947 C   0  0  0  0  0  0  0  0  0  0  0  0
    3.4544    0.0573    2.0459 C   0  0  0  0  0  0  0  0  0  0  0  0
    4.3017   -0.1168    0.8784 C   0  0  0  0  0  0  0  0  0  0  0  0
    5.7547    0.1377    0.9352 C   0  0  0  0  0  0  0  0  0  0  0  0
    5.9819    1.4742    0.9488 O   0  0  0  0  0  0  0  0  0  0  0  0
    6.6106   -0.7310    0.9774 O   0  0  0  0  0  0  0  0  0  0  0  0
    6.8893    1.8746   -0.0745 C   0  0  0  0  0  0  0  0  0  0  0  0
   -4.3869   -0.7241   -1.8256 C   0  0  0  0  0  0  0  0  0  0  0  0
   -5.3009   -0.0465    0.3033 C   0  0  0  0  0  0  0  0  0  0  0  0
   -5.6503   -0.3721   -2.4508 C   0  0  0  0  0  0  0  0  0  0  0  0
   -6.5005    0.1935   -0.2598 C   0  0  0  0  0  0  0  0  0  0  0  0
   -5.1224    0.0570    2.0191 Cl  0  0  0  0  0  0  0  0  0  0  0  0
   -6.6698    0.0704   -1.6961 C   0  0  0  0  0  0  0  0  0  0  0  0
   -2.6815   -2.2583    0.7695 H   0  0  0  0  0  0  0  0  0  0  0  0
   -2.4904    1.8309   -0.5014 H   0  0  0  0  0  0  0  0  0  0  0  0
   -0.2427   -2.3181    1.0071 H   0  0  0  0  0  0  0  0  0  0  0  0
   -0.0680    1.8444   -0.0715 H   0  0  0  0  0  0  0  0  0  0  0  0
    1.9296   -1.0047   -1.3570 H   0  0  0  0  0  0  0  0  0  0  0  0
    1.4656    0.0756    2.7798 H   0  0  0  0  0  0  0  0  0  0  0  0
    4.3767   -0.8944   -1.1012 H   0  0  0  0  0  0  0  0  0  0  0  0
    3.9198    0.2697    3.0025 H   0  0  0  0  0  0  0  0  0  0  0  0
    6.9193    2.9674   -0.0963 H   0  0  0  0  0  0  0  0  0  0  0  0
    6.5551    1.5157   -1.0535 H   0  0  0  0  0  0  0  0  0  0  0  0
    7.8954    1.5028    0.1430 H   0  0  0  0  0  0  0  0  0  0  0  0
   -3.6509   -1.2400   -2.4356 H   0  0  0  0  0  0  0  0  0  0  0  0
   -5.7468   -0.4869   -3.5254 H   0  0  0  0  0  0  0  0  0  0  0  0
   -7.3667    0.4653    0.3339 H   0  0  0  0  0  0  0  0  0  0  0  0
   -7.6279    0.3325   -2.1321 H   0  0  0  0  0  0  0  0  0  0  0  0
  1  2  1  0
  3  1  2  0
  1  4  1  0
  5  3  1  0
  4  6  2  0
  7  5  2  0
  6  7  1  0
  8  7  1  0
  9  8  2  0
  8 10  1  0
 11  9  1  0
 10 12  2  0
 13 11  2  0
 12 13  1  0
 14 13  1  0
 14 15  1  0
 14 16  2  0
 15 17  1  0
  2 18  2  0
 19  2  1  0
 18 20  1  0
 21 19  2  0
 19 22  1  0
 20 23  2  0
 23 21  1  0
  3 24  1  0
  4 25  1  0
  5 26  1  0
  6 27  1  0
  9 28  1  0
 10 29  1  0
 11 30  1  0
 12 31  1  0
 17 32  1  0
 17 33  1  0
 17 34  1  0
 18 35  1  0
 20 36  1  0
 21 37  1  0
 23 38  1  0
M  END
$$$$

     RDKit          3D

 38 40  0  0  0  0  0  0  0  0999 V2000
   -2.7191   -0.0007   -0.3433 C   0  0  0  0  0  0  0  0  0  0  0  0
   -4.0088   -0.3307   -0.9543 C   0  0  0  0  0  0  0  0  0  0  0  0
   -1.9306   -0.9910    0.1296 C   0  0  0  0  0  0  0  0  0  0  0  0
   -2.2058    1.3682   -0.2637 C   0  0  0  0  0  0  0  0  0  0  0  0
   -0.5333   -0.7443    0.4493 C   0  0  0  0  0  0  0  0  0  0  0  0
   -0.9282    1.6055    0.0820 C   0  0  0  0  0  0  0  0  0  0  0  0
   -0.0169    0.5035    0.3969 C   0  0  0  0  0  0  0  0  0  0  0  0
    1.4052    0.7090    0.6667 C   0  0  0  0  0  0  0  0  0  0  0  0
    2.2891    0.6748   -0.3573 C   0  0  0  0  0  0  0  0  0  0  0  0
    1.9219    0.9628    2.0168 C   0  0  0  0  0  0  0  0  0  0  0  0
    3.7209    0.7849   -0.1178 C   0  0  0  0  0  0  0  0  0  0  0  0
    3.2443    1.0522    2.2460 C   0  0  0  0  0  0  0  0  0  0  0  0
    4.1777    0.8945    1.1438 C   0  0  0  0  0  0  0  0  0  0  0  0
    5.6343    0.8214    1.3715 C   0  0  0  0  0  0  0  0  0  0  0  0
    5.9561   -0.4002    1.8637 O   0  0  0  0  0  0  0  0  0  0  0  0
    6.4168    1.7331    1.1592 O   0  0  0  0  0  0  0  0  0  0  0  0
    6.9894   -1.0281    1.1091 C   0  0  0  0  0  0  0  0  0  0  0  0
   -4.0484   -0.5329   -2.2927 C   0  0  0  0  0  0  0  0  0  0  0  0
   -5.2971   -0.3003   -0.2388 C   0  0  0  0  0  0  0  0  0  0  0  0
   -5.2915   -0.3866   -3.0320 C   0  0  0  0  0  0  0  0  0  0  0  0
   -6.4593   -0.2498   -0.9171 C   0  0  0  0  0  0  0  0  0  0  0  0
   -5.3152   -0.3499    1.4888 Cl  0  0  0  0  0  0  0  0  0  0  0  0
   -6.4509   -0.2504   -2.3671 C   0  0  0  0  0  0  0  0  0  0  0  0
   -7.9469   -0.0936   -3.2010 Cl  0  0  0  0  0  0  0  0  0  0  0  0
   -2.3337   -1.9680    0.3802 H   0  0  0  0  0  0  0  0  0  0  0  0
   -2.8846    2.1855   -0.4855 H   0  0  0  0  0  0  0  0  0  0  0  0
    0.0449   -1.5821    0.8286 H   0  0  0  0  0  0  0  0  0  0  0  0
   -0.5469    2.6197    0.1466 H   0  0  0  0  0  0  0  0  0  0  0  0
    1.9563    0.6711   -1.3916 H   0  0  0  0  0  0  0  0  0  0  0  0
    1.2052    1.0797    2.8241 H   0  0  0  0  0  0  0  0  0  0  0  0
    4.3704    0.9304   -0.9757 H   0  0  0  0  0  0  0  0  0  0  0  0
    3.6363    1.2429    3.2395 H   0  0  0  0  0  0  0  0  0  0  0  0
    7.9396   -0.5060    1.2590 H   0  0  0  0  0  0  0  0  0  0  0  0
    6.7336   -1.0539    0.0446 H   0  0  0  0  0  0  0  0  0  0  0  0
    7.0969   -2.0559    1.4661 H   0  0  0  0  0  0  0  0  0  0  0  0
   -3.1583   -0.8032   -2.8543 H   0  0  0  0  0  0  0  0  0  0  0  0
   -5.2488   -0.4034   -4.1160 H   0  0  0  0  0  0  0  0  0  0  0  0
   -7.4146   -0.2282   -0.4038 H   0  0  0  0  0  0  0  0  0  0  0  0
  1  2  1  0
  3  1  2  0
  1  4  1  0
  5  3  1  0
  4  6  2  0
  7  5  2  0
  6  7  1  0
  8  7  1  0
  9  8  2  0
  8 10  1  0
 11  9  1  0
 10 12  2  0
 13 11  2  0
 12 13  1  0
 14 13  1  0
 14 15  1  0
 14 16  2  0
 15 17  1  0
  2 18  2  0
 19  2  1  0
 18 20  1  0
 21 19  2  0
 19 22  1  0
 20 23  2  0
 23 21  1  0
 23 24  1  0
  3 25  1  0
  4 26  1  0
  5 27  1  0
  6 28  1  0
  9 29  1  0
 10 30  1  0
 11 31  1  0
 12 32  1  0
 17 33  1  0
 17 34  1  0
 17 35  1  0
 18 36  1  0
 20 37  1  0
 21 38  1  0
M  END
$$$$

     RDKit          3D

 38 40  0  0  0  0  0  0  0  0999 V2000
   -2.7405   -0.0290    0.1158 C   0  0  0  0  0  0  0  0  0  0  0  0
   -4.1975    0.0033    0.2337 C   0  0  0  0  0  0  0  0  0  0  0  0
   -2.1620   -0.8548   -0.7837 C   0  0  0  0  0  0  0  0  0  0  0  0
   -1.8623    0.7752    0.9672 C   0  0  0  0  0  0  0  0  0  0  0  0
   -0.7155   -0.9475   -0.8994 C   0  0  0  0  0  0  0  0  0  0  0  0
   -0.5250    0.6917    0.8581 C   0  0  0  0  0  0  0  0  0  0  0  0
    0.0980   -0.2056   -0.1163 C   0  0  0  0  0  0  0  0  0  0  0  0
    1.5470   -0.2948   -0.2917 C   0  0  0  0  0  0  0  0  0  0  0  0
    2.2554   -1.1686    0.4601 C   0  0  0  0  0  0  0  0  0  0  0  0
    2.2823    0.5707   -1.2215 C   0  0  0  0  0  0  0  0  0  0  0  0
    3.7094   -1.1973    0.4094 C   0  0  0  0  0  0  0  0  0  0  0  0
    3.6267    0.5559   -1.2656 C   0  0  0  0  0  0  0  0  0  0  0  0
    4.3663   -0.3288   -0.3818 C   0  0  0  0  0  0  0  0  0  0  0  0
    5.8417   -0.3152   -0.3432 C   0  0  0  0  0  0  0  0  0  0  0  0
    6.2610    0.5285    0.6318 O   0  0  0  0  0  0  0  0  0  0  0  0
    6.5611   -0.9727   -1.0771 O   0  0  0  0  0  0  0  0  0  0  0  0
    7.2401    1.4514    0.1616 C   0  0  0  0  0  0  0  0  0  0  0  0
   -4.9048    0.8999   -0.4914 C   0  0  0  0  0  0  0  0  0  0  0  0
   -4.9344   -0.8825    1.1422 C   0  0  0  0  0  0  0  0  0  0  0  0
   -6.3537    0.9771   -0.3836 C   0  0  0  0  0  0  0  0  0  0  0  0
   -6.2739   -0.8105    1.2460 C   0  0  0  0  0  0  0  0  0  0  0  0
   -7.0100    0.1544    0.4520 C   0  0  0  0  0  0  0  0  0  0  0  0
   -8.7221    0.2159    0.6073 Cl  0  0  0  0  0  0  0  0  0  0  0  0
   -2.7546   -1.4759   -1.4494 H   0  0  0  0  0  0  0  0  0  0  0  0
   -2.3215    1.4410    1.6911 H   0  0  0  0  0  0  0  0  0  0  0  0
   -0.3193   -1.6387   -1.6378 H   0  0  0  0  0  0  0  0  0  0  0  0
    0.1239    1.2884    1.4914 H   0  0  0  0  0  0  0  0  0  0  0  0
    1.7637   -1.9071    1.0874 H   0  0  0  0  0  0  0  0  0  0  0  0
    1.7075    1.2175   -1.8775 H   0  0  0  0  0  0  0  0  0  0  0  0
    4.2276   -1.9634    0.9778 H   0  0  0  0  0  0  0  0  0  0  0  0
    4.1764    1.1842   -1.9581 H   0  0  0  0  0  0  0  0  0  0  0  0
    8.1809    0.9326   -0.0470 H   0  0  0  0  0  0  0  0  0  0  0  0
    7.4173    2.1913    0.9469 H   0  0  0  0  0  0  0  0  0  0  0  0
    6.8864    1.9722   -0.7344 H   0  0  0  0  0  0  0  0  0  0  0  0
   -4.4181    1.5886   -1.1763 H   0  0  0  0  0  0  0  0  0  0  0  0
   -4.3663   -1.5978    1.7291 H   0  0  0  0  0  0  0  0  0  0  0  0
   -6.8731    1.7098   -0.9915 H   0  0  0  0  0  0  0  0  0  0  0  0
   -6.8183   -1.4643    1.9183 H   0  0  0  0  0  0  0  0  0  0  0  0
  1  2  1  0
  3  1  2  0
  1  4  1  0
  5  3  1  0
  4  6  2  0
  7  5  2  0
  6  7  1  0
  8  7  1  0
  9  8  2  0
  8 10  1  0
 11  9  1  0
 10 12  2  0
 13 11  2  0
 12 13  1  0
 14 13  1  0
 14 15  1  0
 14 16  2  0
 15 17  1  0
  2 18  2  0
 19  2  1  0
 18 20  1  0
 21 19  2  0
 20 22  2  0
 22 21  1  0
 22 23  1  0
  3 24  1  0
  4 25  1  0
  5 26  1  0
  6 27  1  0
  9 28  1  0
 10 29  1  0
 11 30  1  0
 12 31  1  0
 17 32  1  0
 17 33  1  0
 17 34  1  0
 18 35  1  0
 19 36  1  0
 20 37  1  0
 21 38  1  0
M  END
$$$$

     RDKit          3D

 39 41  0  0  0  0  0  0  0  0999 V2000
   -2.5986   -0.2914   -0.1520 C   0  0  0  0  0  0  0  0  0  0  0  0
   -3.9613    0.2446   -0.1212 C   0  0  0  0  0  0  0  0  0  0  0  0
   -1.7429    0.1098   -1.1174 C   0  0  0  0  0  0  0  0  0  0  0  0
   -2.0651   -1.1711    0.8896 C   0  0  0  0  0  0  0  0  0  0  0  0
   -0.3051    0.0167   -0.9151 C   0  0  0  0  0  0  0  0  0  0  0  0
   -0.7374   -1.3186    1.0448 C   0  0  0  0  0  0  0  0  0  0  0  0
    0.2016   -0.6137    0.1682 C   0  0  0  0  0  0  0  0  0  0  0  0
    1.6276   -0.5002    0.4684 C   0  0  0  0  0  0  0  0  0  0  0  0
    2.4840   -1.4343   -0.0059 C   0  0  0  0  0  0  0  0  0  0  0  0
    2.1777    0.5933    1.2783 C   0  0  0  0  0  0  0  0  0  0  0  0
    3.9205   -1.3065    0.1933 C   0  0  0  0  0  0  0  0  0  0  0  0
    3.5048    0.7234    1.4554 C   0  0  0  0  0  0  0  0  0  0  0  0
    4.4099   -0.2299    0.8366 C   0  0  0  0  0  0  0  0  0  0  0  0
    5.8729   -0.0361    0.8677 C   0  0  0  0  0  0  0  0  0  0  0  0
    6.2223    0.9312   -0.0157 O   0  0  0  0  0  0  0  0  0  0  0  0
    6.6394   -0.6489    1.5929 O   0  0  0  0  0  0  0  0  0  0  0  0
    7.2296    0.4909   -0.9225 C   0  0  0  0  0  0  0  0  0  0  0  0
   -4.1872    1.3906    0.5631 C   0  0  0  0  0  0  0  0  0  0  0  0
   -5.1074   -0.3954   -0.7853 C   0  0  0  0  0  0  0  0  0  0  0  0
   -5.4979    2.0203    0.5755 C   0  0  0  0  0  0  0  0  0  0  0  0
   -6.3325    0.1721   -0.7578 C   0  0  0  0  0  0  0  0  0  0  0  0
   -4.8318   -1.5893   -1.4194 O   0  0  0  0  0  0  0  0  0  0  0  0
   -5.6858    3.6323    1.4930 Br  0  0  0  0  0  0  0  0  0  0  0  0
   -6.5278    1.4323   -0.0589 C   0  0  0  0  0  0  0  0  0  0  0  0
   -7.8223   -0.5928   -1.5857 Br  0  0  0  0  0  0  0  0  0  0  0  0
   -2.0967    0.3819   -2.1072 H   0  0  0  0  0  0  0  0  0  0  0  0
   -2.7688   -1.7044    1.5198 H   0  0  0  0  0  0  0  0  0  0  0  0
    0.3340    0.3507   -1.7271 H   0  0  0  0  0  0  0  0  0  0  0  0
   -0.3330   -1.9738    1.8095 H   0  0  0  0  0  0  0  0  0  0  0  0
    2.1239   -2.3548   -0.4574 H   0  0  0  0  0  0  0  0  0  0  0  0
    1.4810    1.2916    1.7322 H   0  0  0  0  0  0  0  0  0  0  0  0
    4.5459   -2.1597   -0.0513 H   0  0  0  0  0  0  0  0  0  0  0  0
    3.9209    1.5264    2.0546 H   0  0  0  0  0  0  0  0  0  0  0  0
    6.9334   -0.4435   -1.4107 H   0  0  0  0  0  0  0  0  0  0  0  0
    7.3580    1.2588   -1.6902 H   0  0  0  0  0  0  0  0  0  0  0  0
    8.1809    0.3596   -0.3975 H   0  0  0  0  0  0  0  0  0  0  0  0
   -3.3880    1.8645    1.1275 H   0  0  0  0  0  0  0  0  0  0  0  0
   -5.6636   -1.9096   -1.8121 H   0  0  0  0  0  0  0  0  0  0  0  0
   -7.5150    1.8829   -0.0605 H   0  0  0  0  0  0  0  0  0  0  0  0
  1  2  1  0
  3  1  2  0
  1  4  1  0
  5  3  1  0
  4  6  2  0
  7  5  2  0
  6  7  1  0
  8  7  1  0
  9  8  2  0
  8 10  1  0
 11  9  1  0
 10 12  2  0
 13 11  2  0
 12 13  1  0
 14 13  1  0
 14 15  1  0
 14 16  2  0
 15 17  1  0
  2 18  2  0
 19  2  1  0
 18 20  1  0
 21 19  2  0
 19 22  1  0
 20 23  1  0
 20 24  2  0
 24 21  1  0
 21 25  1  0
  3 26  1  0
  4 27  1  0
  5 28  1  0
  6 29  1  0
  9 30  1  0
 10 31  1  0
 11 32  1  0
 12 33  1  0
 17 34  1  0
 17 35  1  0
 17 36  1  0
 18 37  1  0
 22 38  1  0
 24 39  1  0
M  END
$$$$

     RDKit          3D

 38 40  0  0  0  0  0  0  0  0999 V2000
    2.7465    0.0809   -0.0931 C   0  0  0  0  0  0  0  0  0  0  0  0
    4.1820    0.2847    0.0955 C   0  0  0  0  0  0  0  0  0  0  0  0
    1.8901    1.0961    0.1554 C   0  0  0  0  0  0  0  0  0  0  0  0
    2.1805   -1.2017   -0.5138 C   0  0  0  0  0  0  0  0  0  0  0  0
    0.4550    0.9272   -0.0069 C   0  0  0  0  0  0  0  0  0  0  0  0
    0.8531   -1.3603   -0.6557 C   0  0  0  0  0  0  0  0  0  0  0  0
   -0.0710   -0.2559   -0.3928 C   0  0  0  0  0  0  0  0  0  0  0  0
   -1.5223   -0.4021   -0.4954 C   0  0  0  0  0  0  0  0  0  0  0  0
   -2.1337   -0.1602   -1.6779 C   0  0  0  0  0  0  0  0  0  0  0  0
   -2.3532   -0.8262    0.6378 C   0  0  0  0  0  0  0  0  0  0  0  0
   -3.5810   -0.2404   -1.8061 C   0  0  0  0  0  0  0  0  0  0  0  0
   -3.6922   -0.8950    0.5276 C   0  0  0  0  0  0  0  0  0  0  0  0
   -4.3301   -0.5438   -0.7297 C   0  0  0  0  0  0  0  0  0  0  0  0
   -5.7995   -0.5367   -0.8687 C   0  0  0  0  0  0  0  0  0  0  0  0
   -6.2735    0.7033   -0.5935 O   0  0  0  0  0  0  0  0  0  0  0  0
   -6.4709   -1.5029   -1.1915 O   0  0  0  0  0  0  0  0  0  0  0  0
   -7.3463    0.6746    0.3445 C   0  0  0  0  0  0  0  0  0  0  0  0
    4.9425    0.6766   -0.9515 C   0  0  0  0  0  0  0  0  0  0  0  0
    4.8515    0.0401    1.3767 C   0  0  0  0  0  0  0  0  0  0  0  0
    6.3812    0.8413   -0.8149 C   0  0  0  0  0  0  0  0  0  0  0  0
    6.1818    0.1941    1.5056 C   0  0  0  0  0  0  0  0  0  0  0  0
    6.9832    0.6106    0.3661 C   0  0  0  0  0  0  0  0  0  0  0  0
    8.8204    0.8036    0.6068 Br  0  0  0  0  0  0  0  0  0  0  0  0
    2.2428    2.0727    0.4745 H   0  0  0  0  0  0  0  0  0  0  0  0
    2.8635   -2.0226   -0.7085 H   0  0  0  0  0  0  0  0  0  0  0  0
   -0.1724    1.7924    0.1870 H   0  0  0  0  0  0  0  0  0  0  0  0
    0.4363   -2.3127   -0.9680 H   0  0  0  0  0  0  0  0  0  0  0  0
   -1.5644    0.0503   -2.5791 H   0  0  0  0  0  0  0  0  0  0  0  0
   -1.8533   -1.0899    1.5650 H   0  0  0  0  0  0  0  0  0  0  0  0
   -4.0163   -0.1116   -2.7923 H   0  0  0  0  0  0  0  0  0  0  0  0
   -4.3115   -1.2177    1.3574 H   0  0  0  0  0  0  0  0  0  0  0  0
   -7.5733    1.7038    0.6359 H   0  0  0  0  0  0  0  0  0  0  0  0
   -8.2389    0.2372   -0.1137 H   0  0  0  0  0  0  0  0  0  0  0  0
   -7.0651    0.1126    1.2413 H   0  0  0  0  0  0  0  0  0  0  0  0
    4.5067    0.8853   -1.9245 H   0  0  0  0  0  0  0  0  0  0  0  0
    4.2416   -0.2709    2.2193 H   0  0  0  0  0  0  0  0  0  0  0  0
    6.9401    1.1530   -1.6909 H   0  0  0  0  0  0  0  0  0  0  0  0
    6.6698    0.0102    2.4568 H   0  0  0  0  0  0  0  0  0  0  0  0
  1  2  1  0
  3  1  2  0
  1  4  1  0
  5  3  1  0
  4  6  2  0
  7  5  2  0
  6  7  1  0
  8  7  1  0
  9  8  2  0
  8 10  1  0
 11  9  1  0
 10 12  2  0
 13 11  2  0
 12 13  1  0
 14 13  1  0
 14 15  1  0
 14 16  2  0
 15 17  1  0
  2 18  2  0
 19  2  1  0
 18 20  1  0
 21 19  2  0
 20 22  2  0
 22 21  1  0
 22 23  1  0
  3 24  1  0
  4 25  1  0
  5 26  1  0
  6 27  1  0
  9 28  1  0
 10 29  1  0
 11 30  1  0
 12 31  1  0
 17 32  1  0
 17 33  1  0
 17 34  1  0
 18 35  1  0
 19 36  1  0
 20 37  1  0
 21 38  1  0
M  END
$$$$

     RDKit          3D

 39 41  0  0  0  0  0  0  0  0999 V2000
   -2.5756    0.0338   -0.8757 C   0  0  0  0  0  0  0  0  0  0  0  0
   -4.0093    0.2876   -0.7198 C   0  0  0  0  0  0  0  0  0  0  0  0
   -2.0888   -1.2036   -0.6372 C   0  0  0  0  0  0  0  0  0  0  0  0
   -1.6046    1.1054   -1.1039 C   0  0  0  0  0  0  0  0  0  0  0  0
   -0.6935   -1.3946   -0.2746 C   0  0  0  0  0  0  0  0  0  0  0  0
   -0.3000    0.9162   -0.8391 C   0  0  0  0  0  0  0  0  0  0  0  0
    0.1857   -0.3697   -0.3328 C   0  0  0  0  0  0  0  0  0  0  0  0
    1.5485   -0.5587    0.1615 C   0  0  0  0  0  0  0  0  0  0  0  0
    2.5275   -0.9054   -0.7060 C   0  0  0  0  0  0  0  0  0  0  0  0
    1.9193   -0.3208    1.5616 C   0  0  0  0  0  0  0  0  0  0  0  0
    3.9227   -0.9356   -0.2915 C   0  0  0  0  0  0  0  0  0  0  0  0
    3.2074   -0.3388    1.9487 C   0  0  0  0  0  0  0  0  0  0  0  0
    4.2495   -0.5972    0.9699 C   0  0  0  0  0  0  0  0  0  0  0  0
    5.6792   -0.4762    1.3166 C   0  0  0  0  0  0  0  0  0  0  0  0
    6.0249    0.8339    1.3645 O   0  0  0  0  0  0  0  0  0  0  0  0
    6.4217   -1.4186    1.5383 O   0  0  0  0  0  0  0  0  0  0  0  0
    7.1730    1.1162    0.5685 C   0  0  0  0  0  0  0  0  0  0  0  0
   -4.7945    0.2253   -1.8214 C   0  0  0  0  0  0  0  0  0  0  0  0
   -4.6644    0.6026    0.5644 C   0  0  0  0  0  0  0  0  0  0  0  0
   -6.2414    0.3223   -1.7239 C   0  0  0  0  0  0  0  0  0  0  0  0
   -5.9992    0.7305    0.6451 C   0  0  0  0  0  0  0  0  0  0  0  0
   -3.8792    0.7671    1.6862 O   0  0  0  0  0  0  0  0  0  0  0  0
   -6.8213    0.5669   -0.5373 C   0  0  0  0  0  0  0  0  0  0  0  0
   -2.7075   -2.0895   -0.7487 H   0  0  0  0  0  0  0  0  0  0  0  0
   -1.9671    2.0533   -1.4896 H   0  0  0  0  0  0  0  0  0  0  0  0
   -0.3743   -2.4061   -0.0394 H   0  0  0  0  0  0  0  0  0  0  0  0
    0.4246    1.7071   -1.0063 H   0  0  0  0  0  0  0  0  0  0  0  0
    2.2971   -1.2704   -1.7033 H   0  0  0  0  0  0  0  0  0  0  0  0
    1.1241   -0.1326    2.2764 H   0  0  0  0  0  0  0  0  0  0  0  0
    4.6464   -1.3746   -0.9715 H   0  0  0  0  0  0  0  0  0  0  0  0
    3.4920   -0.1667    2.9815 H   0  0  0  0  0  0  0  0  0  0  0  0
    8.0655    0.6696    1.0180 H   0  0  0  0  0  0  0  0  0  0  0  0
    7.3064    2.2009    0.5335 H   0  0  0  0  0  0  0  0  0  0  0  0
    7.0382    0.7484   -0.4540 H   0  0  0  0  0  0  0  0  0  0  0  0
   -4.3731    0.1047   -2.8152 H   0  0  0  0  0  0  0  0  0  0  0  0
   -6.8306    0.1992   -2.6264 H   0  0  0  0  0  0  0  0  0  0  0  0
   -6.4814    0.9611    1.5882 H   0  0  0  0  0  0  0  0  0  0  0  0
   -2.9504    0.6333    1.4308 H   0  0  0  0  0  0  0  0  0  0  0  0
   -7.8979    0.6487   -0.4357 H   0  0  0  0  0  0  0  0  0  0  0  0
  1  2  1  0
  3  1  2  0
  1  4  1  0
  5  3  1  0
  4  6  2  0
  7  5  2  0
  6  7  1  0
  8  7  1  0
  9  8  2  0
  8 10  1  0
 11  9  1  0
 10 12  2  0
 13 11  2  0
 12 13  1  0
 14 13  1  0
 14 15  1  0
 14 16  2  0
 15 17  1  0
  2 18  2  0
 19  2  1  0
 18 20  1  0
 21 19  2  0
 19 22  1  0
 20 23  2  0
 23 21  1  0
  3 24  1  0
  4 25  1  0
  5 26  1  0
  6 27  1  0
  9 28  1  0
 10 29  1  0
 11 30  1  0
 12 31  1  0
 17 32  1  0
 17 33  1  0
 17 34  1  0
 18 35  1  0
 20 36  1  0
 21 37  1  0
 22 38  1  0
 23 39  1  0
M  END
$$$$

     RDKit          3D

 42 44  0  0  0  0  0  0  0  0999 V2000
    2.0399    0.4312   -0.6305 C   0  0  0  0  0  0  0  0  0  0  0  0
    3.4678    0.1595   -0.4530 C   0  0  0  0  0  0  0  0  0  0  0  0
    1.2507   -0.5018   -1.2061 C   0  0  0  0  0  0  0  0  0  0  0  0
    1.3841    1.6093   -0.0606 C   0  0  0  0  0  0  0  0  0  0  0  0
   -0.1853   -0.5038   -0.9776 C   0  0  0  0  0  0  0  0  0  0  0  0
    0.0476    1.6513    0.0794 C   0  0  0  0  0  0  0  0  0  0  0  0
   -0.7903    0.5294   -0.3503 C   0  0  0  0  0  0  0  0  0  0  0  0
   -2.2275    0.4736   -0.0873 C   0  0  0  0  0  0  0  0  0  0  0  0
   -3.0877    1.0147   -0.9807 C   0  0  0  0  0  0  0  0  0  0  0  0
   -2.7821   -0.1112    1.1394 C   0  0  0  0  0  0  0  0  0  0  0  0
   -4.5212    1.0271   -0.7321 C   0  0  0  0  0  0  0  0  0  0  0  0
   -4.1088   -0.1276    1.3617 C   0  0  0  0  0  0  0  0  0  0  0  0
   -5.0121    0.4357    0.3730 C   0  0  0  0  0  0  0  0  0  0  0  0
   -6.4750    0.4123    0.5673 C   0  0  0  0  0  0  0  0  0  0  0  0
   -6.9802   -0.7326    0.0460 O   0  0  0  0  0  0  0  0  0  0  0  0
   -7.1184    1.2983    1.1050 O   0  0  0  0  0  0  0  0  0  0  0  0
   -7.8643   -1.3935    0.9477 C   0  0  0  0  0  0  0  0  0  0  0  0
    4.3284    0.6186   -1.3915 C   0  0  0  0  0  0  0  0  0  0  0  0
    4.0399   -0.5761    0.6890 C   0  0  0  0  0  0  0  0  0  0  0  0
    5.7473    0.3084   -1.3348 C   0  0  0  0  0  0  0  0  0  0  0  0
    5.3559   -0.8380    0.7541 C   0  0  0  0  0  0  0  0  0  0  0  0
    3.1967   -0.9916    1.6988 O   0  0  0  0  0  0  0  0  0  0  0  0
    6.2541   -0.3939   -0.3034 C   0  0  0  0  0  0  0  0  0  0  0  0
    7.7031   -0.7453   -0.1737 C   0  0  0  0  0  0  0  0  0  0  0  0
    1.6545   -1.2504   -1.8819 H   0  0  0  0  0  0  0  0  0  0  0  0
    2.0060    2.4447    0.2466 H   0  0  0  0  0  0  0  0  0  0  0  0
   -0.7561   -1.3241   -1.4039 H   0  0  0  0  0  0  0  0  0  0  0  0
   -0.4421    2.5235    0.5019 H   0  0  0  0  0  0  0  0  0  0  0  0
   -2.7360    1.4977   -1.8882 H   0  0  0  0  0  0  0  0  0  0  0  0
   -2.0891   -0.5240    1.8661 H   0  0  0  0  0  0  0  0  0  0  0  0
   -5.1581    1.5628   -1.4291 H   0  0  0  0  0  0  0  0  0  0  0  0
   -4.5238   -0.5485    2.2712 H   0  0  0  0  0  0  0  0  0  0  0  0
   -8.7872   -0.8173    1.0656 H   0  0  0  0  0  0  0  0  0  0  0  0
   -8.1159   -2.3700    0.5250 H   0  0  0  0  0  0  0  0  0  0  0  0
   -7.3848   -1.5473    1.9201 H   0  0  0  0  0  0  0  0  0  0  0  0
    3.9917    1.2373   -2.2184 H   0  0  0  0  0  0  0  0  0  0  0  0
    6.3747    0.6654   -2.1452 H   0  0  0  0  0  0  0  0  0  0  0  0
    5.7641   -1.3793    1.6010 H   0  0  0  0  0  0  0  0  0  0  0  0
    2.2926   -0.7111    1.4758 H   0  0  0  0  0  0  0  0  0  0  0  0
    8.1192   -0.3297    0.7502 H   0  0  0  0  0  0  0  0  0  0  0  0
    8.2924   -0.3513   -1.0088 H   0  0  0  0  0  0  0  0  0  0  0  0
    7.8355   -1.8324   -0.1565 H   0  0  0  0  0  0  0  0  0  0  0  0
  1  2  1  0
  3  1  2  0
  1  4  1  0
  5  3  1  0
  4  6  2  0
  7  5  2  0
  6  7  1  0
  8  7  1  0
  9  8  2  0
  8 10  1  0
 11  9  1  0
 10 12  2  0
 13 11  2  0
 12 13  1  0
 14 13  1  0
 14 15  1  0
 14 16  2  0
 15 17  1  0
  2 18  2  0
 19  2  1  0
 18 20  1  0
 21 19  2  0
 19 22  1  0
 20 23  2  0
 23 21  1  0
 23 24  1  0
  3 25  1  0
  4 26  1  0
  5 27  1  0
  6 28  1  0
  9 29  1  0
 10 30  1  0
 11 31  1  0
 12 32  1  0
 17 33  1  0
 17 34  1  0
 17 35  1  0
 18 36  1  0
 20 37  1  0
 21 38  1  0
 22 39  1  0
 24 40  1  0
 24 41  1  0
 24 42  1  0
M  END
$$$$

     RDKit          3D

 38 40  0  0  0  0  0  0  0  0999 V2000
   -2.7757   -0.0669   -0.1039 C   0  0  0  0  0  0  0  0  0  0  0  0
   -4.1791    0.3232    0.0195 C   0  0  0  0  0  0  0  0  0  0  0  0
   -2.2548   -0.9707    0.7548 C   0  0  0  0  0  0  0  0  0  0  0  0
   -1.8751    0.5145   -1.1008 C   0  0  0  0  0  0  0  0  0  0  0  0
   -0.8161   -1.1541    0.8644 C   0  0  0  0  0  0  0  0  0  0  0  0
   -0.5486    0.3040   -1.0368 C   0  0  0  0  0  0  0  0  0  0  0  0
    0.0323   -0.5203    0.0249 C   0  0  0  0  0  0  0  0  0  0  0  0
    1.4747   -0.6327    0.2365 C   0  0  0  0  0  0  0  0  0  0  0  0
    2.1725   -1.5799   -0.4316 C   0  0  0  0  0  0  0  0  0  0  0  0
    2.2154    0.2789    1.1167 C   0  0  0  0  0  0  0  0  0  0  0  0
    3.6226   -1.6528   -0.3366 C   0  0  0  0  0  0  0  0  0  0  0  0
    3.5565    0.2205    1.2043 C   0  0  0  0  0  0  0  0  0  0  0  0
    4.2879   -0.7566    0.4159 C   0  0  0  0  0  0  0  0  0  0  0  0
    5.7629   -0.8077    0.4355 C   0  0  0  0  0  0  0  0  0  0  0  0
    6.2554   -0.0527   -0.5774 O   0  0  0  0  0  0  0  0  0  0  0  0
    6.4253   -1.4429    1.2393 O   0  0  0  0  0  0  0  0  0  0  0  0
    7.2397    0.8749   -0.1280 C   0  0  0  0  0  0  0  0  0  0  0  0
   -4.5079    1.3901    0.7852 C   0  0  0  0  0  0  0  0  0  0  0  0
   -5.2642   -0.3674   -0.6817 C   0  0  0  0  0  0  0  0  0  0  0  0
   -5.8857    1.8463    0.8874 C   0  0  0  0  0  0  0  0  0  0  0  0
   -6.5386    0.0442   -0.5854 C   0  0  0  0  0  0  0  0  0  0  0  0
   -4.9619   -1.4429   -1.4389 F   0  0  0  0  0  0  0  0  0  0  0  0
   -6.8633    1.1987    0.2300 C   0  0  0  0  0  0  0  0  0  0  0  0
   -2.8890   -1.6463    1.3215 H   0  0  0  0  0  0  0  0  0  0  0  0
   -2.3082    1.1143   -1.8947 H   0  0  0  0  0  0  0  0  0  0  0  0
   -0.4628   -1.8929    1.5780 H   0  0  0  0  0  0  0  0  0  0  0  0
    0.1202    0.7303   -1.7776 H   0  0  0  0  0  0  0  0  0  0  0  0
    1.6737   -2.3317   -1.0374 H   0  0  0  0  0  0  0  0  0  0  0  0
    1.6469    0.9974    1.6991 H   0  0  0  0  0  0  0  0  0  0  0  0
    4.1310   -2.4589   -0.8566 H   0  0  0  0  0  0  0  0  0  0  0  0
    4.1089    0.8840    1.8607 H   0  0  0  0  0  0  0  0  0  0  0  0
    8.1483    0.3465    0.1774 H   0  0  0  0  0  0  0  0  0  0  0  0
    6.8553    1.4798    0.7000 H   0  0  0  0  0  0  0  0  0  0  0  0
    7.4872    1.5403   -0.9596 H   0  0  0  0  0  0  0  0  0  0  0  0
   -3.7583    1.9338    1.3534 H   0  0  0  0  0  0  0  0  0  0  0  0
   -6.0972    2.7126    1.5058 H   0  0  0  0  0  0  0  0  0  0  0  0
   -7.3322   -0.4751   -1.1088 H   0  0  0  0  0  0  0  0  0  0  0  0
   -7.8980    1.5183    0.2920 H   0  0  0  0  0  0  0  0  0  0  0  0
  1  2  1  0
  3  1  2  0
  1  4  1  0
  5  3  1  0
  4  6  2  0
  7  5  2  0
  6  7  1  0
  8  7  1  0
  9  8  2  0
  8 10  1  0
 11  9  1  0
 10 12  2  0
 13 11  2  0
 12 13  1  0
 14 13  1  0
 14 15  1  0
 14 16  2  0
 15 17  1  0
  2 18  2  0
 19  2  1  0
 18 20  1  0
 21 19  2  0
 19 22  1  0
 20 23  2  0
 23 21  1  0
  3 24  1  0
  4 25  1  0
  5 26  1  0
  6 27  1  0
  9 28  1  0
 10 29  1  0
 11 30  1  0
 12 31  1  0
 17 32  1  0
 17 33  1  0
 17 34  1  0
 18 35  1  0
 20 36  1  0
 21 37  1  0
 23 38  1  0
M  END
$$$$

     RDKit          3D

 38 40  0  0  0  0  0  0  0  0999 V2000
   -2.7275   -0.0419   -0.3099 C   0  0  0  0  0  0  0  0  0  0  0  0
   -4.1716    0.1196   -0.4742 C   0  0  0  0  0  0  0  0  0  0  0  0
   -1.9086    1.0091   -0.5352 C   0  0  0  0  0  0  0  0  0  0  0  0
   -2.1192   -1.2991    0.1279 C   0  0  0  0  0  0  0  0  0  0  0  0
   -0.4687    0.8900   -0.3707 C   0  0  0  0  0  0  0  0  0  0  0  0
   -0.7907   -1.4005    0.3081 C   0  0  0  0  0  0  0  0  0  0  0  0
    0.0914   -0.2554    0.0767 C   0  0  0  0  0  0  0  0  0  0  0  0
    1.5248   -0.2949    0.3621 C   0  0  0  0  0  0  0  0  0  0  0  0
    2.3846   -0.6950   -0.6028 C   0  0  0  0  0  0  0  0  0  0  0  0
    2.0763    0.0650    1.6741 C   0  0  0  0  0  0  0  0  0  0  0  0
    3.8189   -0.7444   -0.3584 C   0  0  0  0  0  0  0  0  0  0  0  0
    3.4027    0.0497    1.8963 C   0  0  0  0  0  0  0  0  0  0  0  0
    4.3079   -0.3244    0.8233 C   0  0  0  0  0  0  0  0  0  0  0  0
    5.7730   -0.2508    0.9901 C   0  0  0  0  0  0  0  0  0  0  0  0
    6.1780    1.0378    0.8735 O   0  0  0  0  0  0  0  0  0  0  0  0
    6.4964   -1.2082    1.2110 O   0  0  0  0  0  0  0  0  0  0  0  0
    7.2255    1.1862   -0.0815 C   0  0  0  0  0  0  0  0  0  0  0  0
   -4.7428   -0.1721   -1.6662 C   0  0  0  0  0  0  0  0  0  0  0  0
   -5.0458    0.5527    0.6243 C   0  0  0  0  0  0  0  0  0  0  0  0
   -6.1823   -0.0740   -1.8515 C   0  0  0  0  0  0  0  0  0  0  0  0
   -6.3768    0.6467    0.4520 C   0  0  0  0  0  0  0  0  0  0  0  0
   -6.9568    0.3196   -0.8300 C   0  0  0  0  0  0  0  0  0  0  0  0
   -8.2925    0.4194   -0.9750 F   0  0  0  0  0  0  0  0  0  0  0  0
   -2.2944    1.9713   -0.8609 H   0  0  0  0  0  0  0  0  0  0  0  0
   -2.7714   -2.1491    0.3025 H   0  0  0  0  0  0  0  0  0  0  0  0
    0.1346    1.7563   -0.6262 H   0  0  0  0  0  0  0  0  0  0  0  0
   -0.3425   -2.3345    0.6310 H   0  0  0  0  0  0  0  0  0  0  0  0
    2.0283   -1.0831   -1.5533 H   0  0  0  0  0  0  0  0  0  0  0  0
    1.3807    0.3396    2.4615 H   0  0  0  0  0  0  0  0  0  0  0  0
    4.4441   -1.2416   -1.0934 H   0  0  0  0  0  0  0  0  0  0  0  0
    3.8184    0.3094    2.8639 H   0  0  0  0  0  0  0  0  0  0  0  0
    6.9483    0.7307   -1.0382 H   0  0  0  0  0  0  0  0  0  0  0  0
    7.3938    2.2551   -0.2402 H   0  0  0  0  0  0  0  0  0  0  0  0
    8.1501    0.7404    0.2977 H   0  0  0  0  0  0  0  0  0  0  0  0
   -4.1497   -0.4864   -2.5202 H   0  0  0  0  0  0  0  0  0  0  0  0
   -4.5864    0.7929    1.5783 H   0  0  0  0  0  0  0  0  0  0  0  0
   -6.6104   -0.3214   -2.8150 H   0  0  0  0  0  0  0  0  0  0  0  0
   -7.0394    0.9613    1.2488 H   0  0  0  0  0  0  0  0  0  0  0  0
  1  2  1  0
  3  1  2  0
  1  4  1  0
  5  3  1  0
  4  6  2  0
  7  5  2  0
  6  7  1  0
  8  7  1  0
  9  8  2  0
  8 10  1  0
 11  9  1  0
 10 12  2  0
 13 11  2  0
 12 13  1  0
 14 13  1  0
 14 15  1  0
 14 16  2  0
 15 17  1  0
  2 18  2  0
 19  2  1  0
 18 20  1  0
 21 19  2  0
 20 22  2  0
 22 21  1  0
 22 23  1  0
  3 24  1  0
  4 25  1  0
  5 26  1  0
  6 27  1  0
  9 28  1  0
 10 29  1  0
 11 30  1  0
 12 31  1  0
 17 32  1  0
 17 33  1  0
 17 34  1  0
 18 35  1  0
 19 36  1  0
 20 37  1  0
 21 38  1  0
M  END
$$$$

     RDKit          3D

 38 40  0  0  0  0  0  0  0  0999 V2000
   -2.7504   -0.1722   -0.1212 C   0  0  0  0  0  0  0  0  0  0  0  0
   -4.1990   -0.3619   -0.1828 C   0  0  0  0  0  0  0  0  0  0  0  0
   -2.2165    0.5703    0.8733 C   0  0  0  0  0  0  0  0  0  0  0  0
   -1.8387   -0.7277   -1.1226 C   0  0  0  0  0  0  0  0  0  0  0  0
   -0.7835    0.8042    0.9526 C   0  0  0  0  0  0  0  0  0  0  0  0
   -0.5136   -0.5128   -1.0486 C   0  0  0  0  0  0  0  0  0  0  0  0
    0.0620    0.2836    0.0363 C   0  0  0  0  0  0  0  0  0  0  0  0
    1.5016    0.4960    0.1799 C   0  0  0  0  0  0  0  0  0  0  0  0
    2.0855    1.5421   -0.4489 C   0  0  0  0  0  0  0  0  0  0  0  0
    2.3609   -0.4202    0.9393 C   0  0  0  0  0  0  0  0  0  0  0  0
    3.5315    1.7053   -0.4518 C   0  0  0  0  0  0  0  0  0  0  0  0
    3.6986   -0.2788    0.9348 C   0  0  0  0  0  0  0  0  0  0  0  0
    4.3062    0.7956    0.1682 C   0  0  0  0  0  0  0  0  0  0  0  0
    5.7724    0.9261    0.0604 C   0  0  0  0  0  0  0  0  0  0  0  0
    6.2054    0.2707   -1.0446 O   0  0  0  0  0  0  0  0  0  0  0  0
    6.4742    1.5389    0.8481 O   0  0  0  0  0  0  0  0  0  0  0  0
    7.2799   -0.6202   -0.7560 C   0  0  0  0  0  0  0  0  0  0  0  0
   -4.7560   -1.4419    0.4113 C   0  0  0  0  0  0  0  0  0  0  0  0
   -5.0858    0.5631   -0.8973 C   0  0  0  0  0  0  0  0  0  0  0  0
   -6.1903   -1.6713    0.3587 C   0  0  0  0  0  0  0  0  0  0  0  0
   -6.4123    0.3494   -0.9504 C   0  0  0  0  0  0  0  0  0  0  0  0
   -6.9868   -0.8101   -0.2963 C   0  0  0  0  0  0  0  0  0  0  0  0
   -2.8382    1.0212    1.6414 H   0  0  0  0  0  0  0  0  0  0  0  0
   -2.2641   -1.3181   -1.9279 H   0  0  0  0  0  0  0  0  0  0  0  0
   -0.4255    1.4195    1.7729 H   0  0  0  0  0  0  0  0  0  0  0  0
    0.1598   -0.9253   -1.7932 H   0  0  0  0  0  0  0  0  0  0  0  0
    1.4947    2.3208   -0.9235 H   0  0  0  0  0  0  0  0  0  0  0  0
    1.8829   -1.2103    1.5104 H   0  0  0  0  0  0  0  0  0  0  0  0
    3.9456    2.6012   -0.9040 H   0  0  0  0  0  0  0  0  0  0  0  0
    4.3391   -0.9449    1.5026 H   0  0  0  0  0  0  0  0  0  0  0  0
    8.1857   -0.0556   -0.5138 H   0  0  0  0  0  0  0  0  0  0  0  0
    7.4731   -1.2228   -1.6477 H   0  0  0  0  0  0  0  0  0  0  0  0
    7.0188   -1.2919    0.0686 H   0  0  0  0  0  0  0  0  0  0  0  0
   -4.1534   -2.1709    0.9451 H   0  0  0  0  0  0  0  0  0  0  0  0
   -4.6389    1.4255   -1.3817 H   0  0  0  0  0  0  0  0  0  0  0  0
   -6.5919   -2.5469    0.8569 H   0  0  0  0  0  0  0  0  0  0  0  0
   -7.0734    1.0295   -1.4762 H   0  0  0  0  0  0  0  0  0  0  0  0
   -8.0597   -0.9590   -0.3505 H   0  0  0  0  0  0  0  0  0  0  0  0
  1  2  1  0
  3  1  2  0
  1  4  1  0
  5  3  1  0
  4  6  2  0
  7  5  2  0
  6  7  1  0
  8  7  1  0
  9  8  2  0
  8 10  1  0
 11  9  1  0
 10 12  2  0
 13 11  2  0
 12 13  1  0
 14 13  1  0
 14 15  1  0
 14 16  2  0
 15 17  1  0
  2 18  2  0
 19  2  1  0
 18 20  1  0
 21 19  2  0
 20 22  2  0
 22 21  1  0
  3 23  1  0
  4 24  1  0
  5 25  1  0
  6 26  1  0
  9 27  1  0
 10 28  1  0
 11 29  1  0
 12 30  1  0
 17 31  1  0
 17 32  1  0
 17 33  1  0
 18 34  1  0
 19 35  1  0
 20 36  1  0
 21 37  1  0
 22 38  1  0
M  END
$$$$

     RDKit          3D

 38 40  0  0  0  0  0  0  0  0999 V2000
   -2.7778    0.2107    0.1667 C   0  0  0  0  0  0  0  0  0  0  0  0
   -4.1599   -0.1510   -0.1420 C   0  0  0  0  0  0  0  0  0  0  0  0
   -2.0112    0.7941   -0.7806 C   0  0  0  0  0  0  0  0  0  0  0  0
   -2.1471   -0.0881    1.4536 C   0  0  0  0  0  0  0  0  0  0  0  0
   -0.5631    0.8324   -0.6466 C   0  0  0  0  0  0  0  0  0  0  0  0
   -0.8135    0.0003    1.6020 C   0  0  0  0  0  0  0  0  0  0  0  0
    0.0416    0.4071    0.4848 C   0  0  0  0  0  0  0  0  0  0  0  0
    1.4993    0.3048    0.5301 C   0  0  0  0  0  0  0  0  0  0  0  0
    2.2257    1.3502    0.9885 C   0  0  0  0  0  0  0  0  0  0  0  0
    2.2176   -0.9059    0.1145 C   0  0  0  0  0  0  0  0  0  0  0  0
    3.6803    1.3118    0.9893 C   0  0  0  0  0  0  0  0  0  0  0  0
    3.5622   -0.9455    0.1072 C   0  0  0  0  0  0  0  0  0  0  0  0
    4.3191    0.2255    0.5159 C   0  0  0  0  0  0  0  0  0  0  0  0
    5.7930    0.2495    0.4444 C   0  0  0  0  0  0  0  0  0  0  0  0
    6.1792    0.7443   -0.7574 O   0  0  0  0  0  0  0  0  0  0  0  0
    6.5373   -0.1145    1.3400 O   0  0  0  0  0  0  0  0  0  0  0  0
    7.1465   -0.0849   -1.3963 C   0  0  0  0  0  0  0  0  0  0  0  0
   -4.4292   -1.3834   -0.6357 C   0  0  0  0  0  0  0  0  0  0  0  0
   -5.2935    0.7470    0.1039 C   0  0  0  0  0  0  0  0  0  0  0  0
   -5.7991   -1.8068   -0.8848 C   0  0  0  0  0  0  0  0  0  0  0  0
   -6.5588    0.3646   -0.1300 C   0  0  0  0  0  0  0  0  0  0  0  0
   -5.0430    1.9861    0.5758 F   0  0  0  0  0  0  0  0  0  0  0  0
   -6.8117   -0.9619   -0.6392 C   0  0  0  0  0  0  0  0  0  0  0  0
   -8.0875   -1.3309   -0.8633 F   0  0  0  0  0  0  0  0  0  0  0  0
   -2.4506    1.3398   -1.6106 H   0  0  0  0  0  0  0  0  0  0  0  0
   -2.7839   -0.3758    2.2838 H   0  0  0  0  0  0  0  0  0  0  0  0
   -0.0033    1.3193   -1.4400 H   0  0  0  0  0  0  0  0  0  0  0  0
   -0.3423   -0.2156    2.5556 H   0  0  0  0  0  0  0  0  0  0  0  0
    1.7502    2.2303    1.4127 H   0  0  0  0  0  0  0  0  0  0  0  0
    1.6301   -1.7702   -0.1798 H   0  0  0  0  0  0  0  0  0  0  0  0
    4.2152    2.1463    1.4321 H   0  0  0  0  0  0  0  0  0  0  0  0
    4.0996   -1.8401   -0.1880 H   0  0  0  0  0  0  0  0  0  0  0  0
    7.2961    0.2861   -2.4140 H   0  0  0  0  0  0  0  0  0  0  0  0
    6.7967   -1.1212   -1.4511 H   0  0  0  0  0  0  0  0  0  0  0  0
    8.1010   -0.0340   -0.8631 H   0  0  0  0  0  0  0  0  0  0  0  0
   -3.6370   -2.0920   -0.8618 H   0  0  0  0  0  0  0  0  0  0  0  0
   -5.9828   -2.8037   -1.2679 H   0  0  0  0  0  0  0  0  0  0  0  0
   -7.3954    1.0262    0.0513 H   0  0  0  0  0  0  0  0  0  0  0  0
  1  2  1  0
  3  1  2  0
  1  4  1  0
  5  3  1  0
  4  6  2  0
  7  5  2  0
  6  7  1  0
  8  7  1  0
  9  8  2  0
  8 10  1  0
 11  9  1  0
 10 12  2  0
 13 11  2  0
 12 13  1  0
 14 13  1  0
 14 15  1  0
 14 16  2  0
 15 17  1  0
  2 18  2  0
 19  2  1  0
 18 20  1  0
 21 19  2  0
 19 22  1  0
 20 23  2  0
 23 21  1  0
 23 24  1  0
  3 25  1  0
  4 26  1  0
  5 27  1  0
  6 28  1  0
  9 29  1  0
 10 30  1  0
 11 31  1  0
 12 32  1  0
 17 33  1  0
 17 34  1  0
 17 35  1  0
 18 36  1  0
 20 37  1  0
 21 38  1  0
M  END
$$$$

     RDKit          3D

 31 32  0  0  0  0  0  0  0  0999 V2000
    1.0382   -0.8405    0.5775 N   0  0  0  0  0  0  0  0  0  0  0  0
    2.3765   -0.4664    0.6452 C   0  0  0  0  0  0  0  0  0  0  0  0
    0.0329    0.0150    0.1570 C   0  0  0  0  0  0  0  0  0  0  0  0
   -0.8598    0.5946    0.9890 C   0  0  0  0  0  0  0  0  0  0  0  0
   -0.2179    0.1141   -1.2814 C   0  0  0  0  0  0  0  0  0  0  0  0
   -2.1956    0.9366    0.5177 C   0  0  0  0  0  0  0  0  0  0  0  0
   -1.4282    0.4842   -1.7391 C   0  0  0  0  0  0  0  0  0  0  0  0
   -2.4838    0.8044   -0.7918 C   0  0  0  0  0  0  0  0  0  0  0  0
   -3.8880    0.9538   -1.2210 C   0  0  0  0  0  0  0  0  0  0  0  0
   -4.4266   -0.2696   -1.4460 O   0  0  0  0  0  0  0  0  0  0  0  0
   -4.4596    2.0228   -1.3597 O   0  0  0  0  0  0  0  0  0  0  0  0
   -5.6627   -0.4481   -0.7593 C   0  0  0  0  0  0  0  0  0  0  0  0
    2.8826    0.4653    1.4818 C   0  0  0  0  0  0  0  0  0  0  0  0
    3.3190   -1.2329   -0.1769 C   0  0  0  0  0  0  0  0  0  0  0  0
    4.3252    0.6273    1.6544 C   0  0  0  0  0  0  0  0  0  0  0  0
    4.6446   -1.0692   -0.0552 C   0  0  0  0  0  0  0  0  0  0  0  0
    2.7744   -2.1315   -1.0654 O   0  0  0  0  0  0  0  0  0  0  0  0
    5.0528    1.9965    3.0174 I   0  0  0  0  0  0  0  0  0  0  0  0
    5.1666   -0.1135    0.9052 C   0  0  0  0  0  0  0  0  0  0  0  0
    0.7686   -1.3311    1.4316 H   0  0  0  0  0  0  0  0  0  0  0  0
   -0.5536    0.9817    1.9555 H   0  0  0  0  0  0  0  0  0  0  0  0
    0.5968   -0.0974   -1.9663 H   0  0  0  0  0  0  0  0  0  0  0  0
   -2.8370    1.5078    1.1827 H   0  0  0  0  0  0  0  0  0  0  0  0
   -1.6318    0.5748   -2.8008 H   0  0  0  0  0  0  0  0  0  0  0  0
   -5.9582   -1.4965   -0.8547 H   0  0  0  0  0  0  0  0  0  0  0  0
   -6.4404    0.1759   -1.2105 H   0  0  0  0  0  0  0  0  0  0  0  0
   -5.5556   -0.2115    0.3046 H   0  0  0  0  0  0  0  0  0  0  0  0
    2.2287    1.1841    1.9635 H   0  0  0  0  0  0  0  0  0  0  0  0
    5.3383   -1.6404   -0.6615 H   0  0  0  0  0  0  0  0  0  0  0  0
    1.8080   -2.0617   -0.9329 H   0  0  0  0  0  0  0  0  0  0  0  0
    6.2454   -0.0284    0.9864 H   0  0  0  0  0  0  0  0  0  0  0  0
  1  2  1  0
  1  3  1  0
  4  3  2  0
  3  5  1  0
  6  4  1  0
  5  7  2  0
  8  6  2  0
  7  8  1  0
  9  8  1  0
  9 10  1  0
  9 11  2  0
 10 12  1  0
  2 13  2  0
 14  2  1  0
 13 15  1  0
 16 14  2  0
 14 17  1  0
 15 18  1  0
 15 19  2  0
 19 16  1  0
  1 20  1  0
  4 21  1  0
  5 22  1  0
  6 23  1  0
  7 24  1  0
 12 25  1  0
 12 26  1  0
 12 27  1  0
 13 28  1  0
 16 29  1  0
 17 30  1  0
 19 31  1  0
M  END
$$$$

     RDKit          3D

 30 31  0  0  0  0  0  0  0  0999 V2000
   -1.2727   -1.0144    1.3317 N   0  0  0  0  0  0  0  0  0  0  0  0
   -2.4626   -0.2939    1.2891 C   0  0  0  0  0  0  0  0  0  0  0  0
   -0.1718   -0.7018    0.5522 C   0  0  0  0  0  0  0  0  0  0  0  0
   -0.0839   -0.9225   -0.7772 C   0  0  0  0  0  0  0  0  0  0  0  0
    1.0338   -0.2709    1.2587 C   0  0  0  0  0  0  0  0  0  0  0  0
    1.2107   -0.9903   -1.4376 C   0  0  0  0  0  0  0  0  0  0  0  0
    2.2266   -0.2437    0.6365 C   0  0  0  0  0  0  0  0  0  0  0  0
    2.3182   -0.6279   -0.7628 C   0  0  0  0  0  0  0  0  0  0  0  0
    3.6211   -0.7013   -1.4528 C   0  0  0  0  0  0  0  0  0  0  0  0
    3.8579    0.4701   -2.0935 O   0  0  0  0  0  0  0  0  0  0  0  0
    4.3582   -1.6733   -1.4472 O   0  0  0  0  0  0  0  0  0  0  0  0
    5.1428    1.0030   -1.7829 C   0  0  0  0  0  0  0  0  0  0  0  0
   -2.5914    0.9227    1.8626 C   0  0  0  0  0  0  0  0  0  0  0  0
   -3.6244   -0.8138    0.5376 C   0  0  0  0  0  0  0  0  0  0  0  0
   -3.6072    1.8520    1.4028 C   0  0  0  0  0  0  0  0  0  0  0  0
   -4.6294    0.0202    0.2006 C   0  0  0  0  0  0  0  0  0  0  0  0
   -3.6969   -2.6341    0.1056 Br  0  0  0  0  0  0  0  0  0  0  0  0
   -4.5900    1.4168    0.5971 C   0  0  0  0  0  0  0  0  0  0  0  0
   -1.4603   -2.0170    1.2897 H   0  0  0  0  0  0  0  0  0  0  0  0
   -0.9715   -0.9730   -1.3989 H   0  0  0  0  0  0  0  0  0  0  0  0
    0.9380    0.0183    2.3001 H   0  0  0  0  0  0  0  0  0  0  0  0
    1.2361   -1.2493   -2.4913 H   0  0  0  0  0  0  0  0  0  0  0  0
    3.1269    0.0647    1.1564 H   0  0  0  0  0  0  0  0  0  0  0  0
    5.2840    1.0729   -0.6993 H   0  0  0  0  0  0  0  0  0  0  0  0
    5.2076    2.0084   -2.2077 H   0  0  0  0  0  0  0  0  0  0  0  0
    5.9281    0.3848   -2.2291 H   0  0  0  0  0  0  0  0  0  0  0  0
   -1.9070    1.2501    2.6374 H   0  0  0  0  0  0  0  0  0  0  0  0
   -3.5516    2.8851    1.7283 H   0  0  0  0  0  0  0  0  0  0  0  0
   -5.5005   -0.3241   -0.3466 H   0  0  0  0  0  0  0  0  0  0  0  0
   -5.3690    2.0823    0.2405 H   0  0  0  0  0  0  0  0  0  0  0  0
  1  2  1  0
  1  3  1  0
  4  3  2  0
  3  5  1  0
  6  4  1  0
  5  7  2  0
  8  6  2  0
  7  8  1  0
  9  8  1  0
  9 10  1  0
  9 11  2  0
 10 12  1  0
  2 13  2  0
 14  2  1  0
 13 15  1  0
 16 14  2  0
 14 17  1  0
 15 18  2  0
 18 16  1  0
  1 19  1  0
  4 20  1  0
  5 21  1  0
  6 22  1  0
  7 23  1  0
 12 24  1  0
 12 25  1  0
 12 26  1  0
 13 27  1  0
 15 28  1  0
 16 29  1  0
 18 30  1  0
M  END
$$$$

     RDKit          3D

 33 34  0  0  0  0  0  0  0  0999 V2000
   -0.6198    1.4581   -0.2658 N   0  0  0  0  0  0  0  0  0  0  0  0
   -1.7576    1.0631    0.4134 C   0  0  0  0  0  0  0  0  0  0  0  0
    0.4796    0.6484   -0.4766 C   0  0  0  0  0  0  0  0  0  0  0  0
    0.5054   -0.4208   -1.3000 C   0  0  0  0  0  0  0  0  0  0  0  0
    1.7420    1.0896    0.1162 C   0  0  0  0  0  0  0  0  0  0  0  0
    1.7675   -0.9544   -1.7907 C   0  0  0  0  0  0  0  0  0  0  0  0
    2.9126    0.5441   -0.2630 C   0  0  0  0  0  0  0  0  0  0  0  0
    2.9244   -0.5139   -1.2598 C   0  0  0  0  0  0  0  0  0  0  0  0
    4.1906   -1.1067   -1.7337 C   0  0  0  0  0  0  0  0  0  0  0  0
    4.4841   -2.1986   -0.9851 O   0  0  0  0  0  0  0  0  0  0  0  0
    4.8579   -0.6756   -2.6597 O   0  0  0  0  0  0  0  0  0  0  0  0
    5.8260   -2.1766   -0.5043 C   0  0  0  0  0  0  0  0  0  0  0  0
   -1.9086    1.2030    1.7464 C   0  0  0  0  0  0  0  0  0  0  0  0
   -2.9079    0.6030   -0.3634 C   0  0  0  0  0  0  0  0  0  0  0  0
   -3.1913    0.9691    2.3881 C   0  0  0  0  0  0  0  0  0  0  0  0
   -4.0940    0.3711    0.2274 C   0  0  0  0  0  0  0  0  0  0  0  0
   -4.2534    0.5661    1.6636 C   0  0  0  0  0  0  0  0  0  0  0  0
   -5.6039    0.3009    2.2535 C   0  0  0  0  0  0  0  0  0  0  0  0
   -0.8372    2.0223   -1.0850 H   0  0  0  0  0  0  0  0  0  0  0  0
   -0.3976   -0.9823   -1.5177 H   0  0  0  0  0  0  0  0  0  0  0  0
    1.7057    1.8751    0.8641 H   0  0  0  0  0  0  0  0  0  0  0  0
    1.7342   -1.7708   -2.5079 H   0  0  0  0  0  0  0  0  0  0  0  0
    3.8529    0.8744    0.1638 H   0  0  0  0  0  0  0  0  0  0  0  0
    6.0774   -1.2000   -0.0761 H   0  0  0  0  0  0  0  0  0  0  0  0
    6.5179   -2.4243   -1.3159 H   0  0  0  0  0  0  0  0  0  0  0  0
    5.9208   -2.9334    0.2793 H   0  0  0  0  0  0  0  0  0  0  0  0
   -1.0672    1.4727    2.3756 H   0  0  0  0  0  0  0  0  0  0  0  0
   -2.7855    0.4479   -1.4295 H   0  0  0  0  0  0  0  0  0  0  0  0
   -3.2545    1.1258    3.4597 H   0  0  0  0  0  0  0  0  0  0  0  0
   -4.9453    0.0292   -0.3524 H   0  0  0  0  0  0  0  0  0  0  0  0
   -5.9024   -0.7392    2.0815 H   0  0  0  0  0  0  0  0  0  0  0  0
   -6.3561    0.9567    1.8021 H   0  0  0  0  0  0  0  0  0  0  0  0
   -5.6166    0.4763    3.3345 H   0  0  0  0  0  0  0  0  0  0  0  0
  1  2  1  0
  1  3  1  0
  4  3  2  0
  3  5  1  0
  6  4  1  0
  5  7  2  0
  8  6  2  0
  7  8  1  0
  9  8  1  0
  9 10  1  0
  9 11  2  0
 10 12  1  0
  2 13  2  0
 14  2  1  0
 13 15  1  0
 16 14  2  0
 15 17  2  0
 17 16  1  0
 17 18  1  0
  1 19  1  0
  4 20  1  0
  5 21  1  0
  6 22  1  0
  7 23  1  0
 12 24  1  0
 12 25  1  0
 12 26  1  0
 13 27  1  0
 14 28  1  0
 15 29  1  0
 16 30  1  0
 18 31  1  0
 18 32  1  0
 18 33  1  0
M  END
$$$$

     RDKit          3D

 30 31  0  0  0  0  0  0  0  0999 V2000
   -1.2284    1.2148   -0.6367 N   0  0  0  0  0  0  0  0  0  0  0  0
   -2.5384    0.8614   -0.3255 C   0  0  0  0  0  0  0  0  0  0  0  0
   -0.1769    0.3146   -0.6002 C   0  0  0  0  0  0  0  0  0  0  0  0
    0.3824   -0.1666    0.5314 C   0  0  0  0  0  0  0  0  0  0  0  0
    0.4804    0.0168   -1.8718 C   0  0  0  0  0  0  0  0  0  0  0  0
    1.7282   -0.7236    0.5195 C   0  0  0  0  0  0  0  0  0  0  0  0
    1.7115   -0.5257   -1.8990 C   0  0  0  0  0  0  0  0  0  0  0  0
    2.3896   -0.8272   -0.6491 C   0  0  0  0  0  0  0  0  0  0  0  0
    3.8161   -1.2046   -0.6167 C   0  0  0  0  0  0  0  0  0  0  0  0
    4.5832   -0.1022   -0.8011 O   0  0  0  0  0  0  0  0  0  0  0  0
    4.2294   -2.3421   -0.4611 O   0  0  0  0  0  0  0  0  0  0  0  0
    5.5484    0.0586    0.2350 C   0  0  0  0  0  0  0  0  0  0  0  0
   -3.3262    0.1696   -1.1783 C   0  0  0  0  0  0  0  0  0  0  0  0
   -3.1143    1.2301    0.9807 C   0  0  0  0  0  0  0  0  0  0  0  0
   -4.5550   -0.4549   -0.7211 C   0  0  0  0  0  0  0  0  0  0  0  0
   -4.2950    0.7183    1.3773 C   0  0  0  0  0  0  0  0  0  0  0  0
   -2.2757    2.3518    1.9958 Cl  0  0  0  0  0  0  0  0  0  0  0  0
   -5.0223   -0.1917    0.5108 C   0  0  0  0  0  0  0  0  0  0  0  0
   -0.9690    2.0764   -0.1540 H   0  0  0  0  0  0  0  0  0  0  0  0
   -0.2138   -0.3151    1.4261 H   0  0  0  0  0  0  0  0  0  0  0  0
   -0.0541    0.2420   -2.7886 H   0  0  0  0  0  0  0  0  0  0  0  0
    2.0709   -1.2362    1.4134 H   0  0  0  0  0  0  0  0  0  0  0  0
    2.2106   -0.7548   -2.8344 H   0  0  0  0  0  0  0  0  0  0  0  0
    5.0700    0.0370    1.2198 H   0  0  0  0  0  0  0  0  0  0  0  0
    6.0316    1.0306    0.1041 H   0  0  0  0  0  0  0  0  0  0  0  0
    6.3122   -0.7222    0.1670 H   0  0  0  0  0  0  0  0  0  0  0  0
   -3.0387    0.0319   -2.2151 H   0  0  0  0  0  0  0  0  0  0  0  0
   -5.0767   -1.1251   -1.3961 H   0  0  0  0  0  0  0  0  0  0  0  0
   -4.7401    0.9774    2.3318 H   0  0  0  0  0  0  0  0  0  0  0  0
   -5.9400   -0.6391    0.8774 H   0  0  0  0  0  0  0  0  0  0  0  0
  1  2  1  0
  1  3  1  0
  4  3  2  0
  3  5  1  0
  6  4  1  0
  5  7  2  0
  8  6  2  0
  7  8  1  0
  9  8  1  0
  9 10  1  0
  9 11  2  0
 10 12  1  0
  2 13  2  0
 14  2  1  0
 13 15  1  0
 16 14  2  0
 14 17  1  0
 15 18  2  0
 18 16  1  0
  1 19  1  0
  4 20  1  0
  5 21  1  0
  6 22  1  0
  7 23  1  0
 12 24  1  0
 12 25  1  0
 12 26  1  0
 13 27  1  0
 15 28  1  0
 16 29  1  0
 18 30  1  0
M  END
$$$$

     RDKit          3D

 30 31  0  0  0  0  0  0  0  0999 V2000
    1.2299    1.5900   -0.7508 N   0  0  0  0  0  0  0  0  0  0  0  0
    2.4037    0.9065   -1.0501 C   0  0  0  0  0  0  0  0  0  0  0  0
    0.1218    0.9765   -0.1908 C   0  0  0  0  0  0  0  0  0  0  0  0
    0.0297    0.5850    1.0987 C   0  0  0  0  0  0  0  0  0  0  0  0
   -1.0762    0.8919   -1.0252 C   0  0  0  0  0  0  0  0  0  0  0  0
   -1.2595    0.2699    1.6946 C   0  0  0  0  0  0  0  0  0  0  0  0
   -2.2610    0.5288   -0.5006 C   0  0  0  0  0  0  0  0  0  0  0  0
   -2.3531    0.1998    0.9123 C   0  0  0  0  0  0  0  0  0  0  0  0
   -3.6439   -0.1579    1.5326 C   0  0  0  0  0  0  0  0  0  0  0  0
   -3.7830   -1.5065    1.5384 O   0  0  0  0  0  0  0  0  0  0  0  0
   -4.4492    0.6447    1.9748 O   0  0  0  0  0  0  0  0  0  0  0  0
   -5.0300   -1.9213    0.9867 C   0  0  0  0  0  0  0  0  0  0  0  0
    2.5173    0.0936   -2.1235 C   0  0  0  0  0  0  0  0  0  0  0  0
    3.5748    1.0213   -0.1622 C   0  0  0  0  0  0  0  0  0  0  0  0
    3.5845   -0.8898   -2.2006 C   0  0  0  0  0  0  0  0  0  0  0  0
    4.6121    0.1711   -0.2821 C   0  0  0  0  0  0  0  0  0  0  0  0
    3.6231    2.2809    1.0218 Cl  0  0  0  0  0  0  0  0  0  0  0  0
    4.5910   -0.8516   -1.3111 C   0  0  0  0  0  0  0  0  0  0  0  0
    5.8829   -1.9852   -1.3731 Cl  0  0  0  0  0  0  0  0  0  0  0  0
    1.4360    2.4607   -0.2580 H   0  0  0  0  0  0  0  0  0  0  0  0
    0.9146    0.4405    1.7093 H   0  0  0  0  0  0  0  0  0  0  0  0
   -0.9834    1.1387   -2.0777 H   0  0  0  0  0  0  0  0  0  0  0  0
   -1.2926    0.0381    2.7544 H   0  0  0  0  0  0  0  0  0  0  0  0
   -3.1555    0.4750   -1.1112 H   0  0  0  0  0  0  0  0  0  0  0  0
   -5.8509   -1.6493    1.6576 H   0  0  0  0  0  0  0  0  0  0  0  0
   -5.1851   -1.4780   -0.0025 H   0  0  0  0  0  0  0  0  0  0  0  0
   -5.0122   -3.0095    0.8813 H   0  0  0  0  0  0  0  0  0  0  0  0
    1.7907    0.1262   -2.9285 H   0  0  0  0  0  0  0  0  0  0  0  0
    3.5404   -1.6336   -2.9890 H   0  0  0  0  0  0  0  0  0  0  0  0
    5.4832    0.2436    0.3598 H   0  0  0  0  0  0  0  0  0  0  0  0
  1  2  1  0
  1  3  1  0
  4  3  2  0
  3  5  1  0
  6  4  1  0
  5  7  2  0
  8  6  2  0
  7  8  1  0
  9  8  1  0
  9 10  1  0
  9 11  2  0
 10 12  1  0
  2 13  2  0
 14  2  1  0
 13 15  1  0
 16 14  2  0
 14 17  1  0
 15 18  2  0
 18 16  1  0
 18 19  1  0
  1 20  1  0
  4 21  1  0
  5 22  1  0
  6 23  1  0
  7 24  1  0
 12 25  1  0
 12 26  1  0
 12 27  1  0
 13 28  1  0
 15 29  1  0
 16 30  1  0
M  END
$$$$

     RDKit          3D

 30 31  0  0  0  0  0  0  0  0999 V2000
   -1.3285    1.0229    0.9656 N   0  0  0  0  0  0  0  0  0  0  0  0
   -2.5074    0.3515    0.7020 C   0  0  0  0  0  0  0  0  0  0  0  0
   -0.0975    0.6474    0.4618 C   0  0  0  0  0  0  0  0  0  0  0  0
    0.6356   -0.3913    0.9175 C   0  0  0  0  0  0  0  0  0  0  0  0
    0.5286    1.5600   -0.4946 C   0  0  0  0  0  0  0  0  0  0  0  0
    2.0732   -0.4406    0.6995 C   0  0  0  0  0  0  0  0  0  0  0  0
    1.8400    1.4674   -0.7815 C   0  0  0  0  0  0  0  0  0  0  0  0
    2.6440    0.4316   -0.1530 C   0  0  0  0  0  0  0  0  0  0  0  0
    4.0983    0.3365   -0.3895 C   0  0  0  0  0  0  0  0  0  0  0  0
    4.3214   -0.2119   -1.6093 O   0  0  0  0  0  0  0  0  0  0  0  0
    4.9569    0.7079    0.3935 O   0  0  0  0  0  0  0  0  0  0  0  0
    5.2208   -1.3158   -1.5464 C   0  0  0  0  0  0  0  0  0  0  0  0
   -3.0113   -0.6359    1.4734 C   0  0  0  0  0  0  0  0  0  0  0  0
   -3.3316    0.8549   -0.3961 C   0  0  0  0  0  0  0  0  0  0  0  0
   -4.3891   -1.0765    1.3199 C   0  0  0  0  0  0  0  0  0  0  0  0
   -4.5935    0.4210   -0.5702 C   0  0  0  0  0  0  0  0  0  0  0  0
   -5.1480   -0.5688    0.3337 C   0  0  0  0  0  0  0  0  0  0  0  0
   -6.7772   -1.0721    0.1081 Cl  0  0  0  0  0  0  0  0  0  0  0  0
   -1.2617    1.3064    1.9415 H   0  0  0  0  0  0  0  0  0  0  0  0
    0.1685   -1.2394    1.4056 H   0  0  0  0  0  0  0  0  0  0  0  0
   -0.0939    2.3156   -0.9623 H   0  0  0  0  0  0  0  0  0  0  0  0
    2.6467   -1.1998    1.2213 H   0  0  0  0  0  0  0  0  0  0  0  0
    2.3139    2.1409   -1.4876 H   0  0  0  0  0  0  0  0  0  0  0  0
    6.2307   -0.9697   -1.3052 H   0  0  0  0  0  0  0  0  0  0  0  0
    5.2425   -1.7953   -2.5288 H   0  0  0  0  0  0  0  0  0  0  0  0
    4.8844   -2.0505   -0.8074 H   0  0  0  0  0  0  0  0  0  0  0  0
   -2.3953   -1.1561    2.1984 H   0  0  0  0  0  0  0  0  0  0  0  0
   -2.8966    1.5879   -1.0672 H   0  0  0  0  0  0  0  0  0  0  0  0
   -4.7688   -1.8230    2.0087 H   0  0  0  0  0  0  0  0  0  0  0  0
   -5.2053    0.7947   -1.3836 H   0  0  0  0  0  0  0  0  0  0  0  0
  1  2  1  0
  1  3  1  0
  4  3  2  0
  3  5  1  0
  6  4  1  0
  5  7  2  0
  8  6  2  0
  7  8  1  0
  9  8  1  0
  9 10  1  0
  9 11  2  0
 10 12  1  0
  2 13  2  0
 14  2  1  0
 13 15  1  0
 16 14  2  0
 15 17  2  0
 17 16  1  0
 17 18  1  0
  1 19  1  0
  4 20  1  0
  5 21  1  0
  6 22  1  0
  7 23  1  0
 12 24  1  0
 12 25  1  0
 12 26  1  0
 13 27  1  0
 14 28  1  0
 15 29  1  0
 16 30  1  0
M  END
$$$$

     RDKit          3D

 31 32  0  0  0  0  0  0  0  0999 V2000
   -1.0922   -0.7925   -0.7937 N   0  0  0  0  0  0  0  0  0  0  0  0
   -2.4025   -0.3286   -0.8693 C   0  0  0  0  0  0  0  0  0  0  0  0
   -0.1005   -0.1440   -0.0748 C   0  0  0  0  0  0  0  0  0  0  0  0
    0.3766   -0.5800    1.1115 C   0  0  0  0  0  0  0  0  0  0  0  0
    0.6287    0.9351   -0.7424 C   0  0  0  0  0  0  0  0  0  0  0  0
    1.7525   -0.3005    1.5018 C   0  0  0  0  0  0  0  0  0  0  0  0
    1.8778    1.2550   -0.3562 C   0  0  0  0  0  0  0  0  0  0  0  0
    2.4933    0.5328    0.7456 C   0  0  0  0  0  0  0  0  0  0  0  0
    3.9305    0.6699    1.0526 C   0  0  0  0  0  0  0  0  0  0  0  0
    4.6569   -0.0245    0.1430 O   0  0  0  0  0  0  0  0  0  0  0  0
    4.3809    1.3217    1.9804 O   0  0  0  0  0  0  0  0  0  0  0  0
    5.6045   -0.8927    0.7595 C   0  0  0  0  0  0  0  0  0  0  0  0
   -3.2640   -0.2771    0.1685 C   0  0  0  0  0  0  0  0  0  0  0  0
   -2.8985    0.0418   -2.2033 C   0  0  0  0  0  0  0  0  0  0  0  0
   -4.6613    0.0753   -0.0327 C   0  0  0  0  0  0  0  0  0  0  0  0
   -4.1869    0.3905   -2.3971 C   0  0  0  0  0  0  0  0  0  0  0  0
   -1.9635   -0.0038   -3.2185 O   0  0  0  0  0  0  0  0  0  0  0  0
   -5.7840    0.0727    1.4559 Br  0  0  0  0  0  0  0  0  0  0  0  0
   -5.1004    0.3992   -1.2625 C   0  0  0  0  0  0  0  0  0  0  0  0
   -4.8896    0.8663   -4.0610 Br  0  0  0  0  0  0  0  0  0  0  0  0
   -1.0824   -1.7965   -0.6045 H   0  0  0  0  0  0  0  0  0  0  0  0
   -0.2889   -0.9786    1.8702 H   0  0  0  0  0  0  0  0  0  0  0  0
    0.1354    1.4816   -1.5396 H   0  0  0  0  0  0  0  0  0  0  0  0
    2.0603   -0.5762    2.5065 H   0  0  0  0  0  0  0  0  0  0  0  0
    2.4318    2.0580   -0.8307 H   0  0  0  0  0  0  0  0  0  0  0  0
    6.4002   -0.3104    1.2344 H   0  0  0  0  0  0  0  0  0  0  0  0
    6.0491   -1.5204   -0.0176 H   0  0  0  0  0  0  0  0  0  0  0  0
    5.1172   -1.5414    1.4949 H   0  0  0  0  0  0  0  0  0  0  0  0
   -2.9116   -0.4123    1.1857 H   0  0  0  0  0  0  0  0  0  0  0  0
   -1.1322   -0.2911   -2.7917 H   0  0  0  0  0  0  0  0  0  0  0  0
   -6.1371    0.6708   -1.4346 H   0  0  0  0  0  0  0  0  0  0  0  0
  1  2  1  0
  1  3  1  0
  4  3  2  0
  3  5  1  0
  6  4  1  0
  5  7  2  0
  8  6  2  0
  7  8  1  0
  9  8  1  0
  9 10  1  0
  9 11  2  0
 10 12  1  0
  2 13  2  0
 14  2  1  0
 13 15  1  0
 16 14  2  0
 14 17  1  0
 15 18  1  0
 15 19  2  0
 19 16  1  0
 16 20  1  0
  1 21  1  0
  4 22  1  0
  5 23  1  0
  6 24  1  0
  7 25  1  0
 12 26  1  0
 12 27  1  0
 12 28  1  0
 13 29  1  0
 17 30  1  0
 19 31  1  0
M  END
$$$$

     RDKit          3D

 30 31  0  0  0  0  0  0  0  0999 V2000
   -1.3517   -1.3616   -0.4599 N   0  0  0  0  0  0  0  0  0  0  0  0
   -2.4679   -0.6145   -0.1376 C   0  0  0  0  0  0  0  0  0  0  0  0
   -0.0579   -0.8774   -0.4161 C   0  0  0  0  0  0  0  0  0  0  0  0
    0.7320   -0.9876    0.6735 C   0  0  0  0  0  0  0  0  0  0  0  0
    0.5293   -0.3403   -1.6452 C   0  0  0  0  0  0  0  0  0  0  0  0
    2.1583   -0.7139    0.5987 C   0  0  0  0  0  0  0  0  0  0  0  0
    1.8345   -0.0174   -1.7029 C   0  0  0  0  0  0  0  0  0  0  0  0
    2.6742   -0.1898   -0.5288 C   0  0  0  0  0  0  0  0  0  0  0  0
    4.0998    0.1934   -0.5397 C   0  0  0  0  0  0  0  0  0  0  0  0
    4.2078    1.5392   -0.4165 O   0  0  0  0  0  0  0  0  0  0  0  0
    5.0289   -0.5879   -0.6617 O   0  0  0  0  0  0  0  0  0  0  0  0
    5.0763    1.9123    0.6502 C   0  0  0  0  0  0  0  0  0  0  0  0
   -3.0296    0.3156   -0.9383 C   0  0  0  0  0  0  0  0  0  0  0  0
   -3.1953   -1.0017    1.0687 C   0  0  0  0  0  0  0  0  0  0  0  0
   -4.4247    0.6926   -0.7739 C   0  0  0  0  0  0  0  0  0  0  0  0
   -4.4626   -0.5960    1.2713 C   0  0  0  0  0  0  0  0  0  0  0  0
   -5.1203    0.2571    0.2931 C   0  0  0  0  0  0  0  0  0  0  0  0
   -6.9018    0.7167    0.5824 Br  0  0  0  0  0  0  0  0  0  0  0  0
   -1.5152   -1.9560   -1.2701 H   0  0  0  0  0  0  0  0  0  0  0  0
    0.3277   -1.3290    1.6208 H   0  0  0  0  0  0  0  0  0  0  0  0
   -0.1100   -0.2052   -2.5107 H   0  0  0  0  0  0  0  0  0  0  0  0
    2.7808   -1.0063    1.4382 H   0  0  0  0  0  0  0  0  0  0  0  0
    2.2812    0.3801   -2.6082 H   0  0  0  0  0  0  0  0  0  0  0  0
    5.0074    2.9953    0.7846 H   0  0  0  0  0  0  0  0  0  0  0  0
    4.7778    1.4253    1.5845 H   0  0  0  0  0  0  0  0  0  0  0  0
    6.1116    1.6568    0.4039 H   0  0  0  0  0  0  0  0  0  0  0  0
   -2.4385    0.8705   -1.6578 H   0  0  0  0  0  0  0  0  0  0  0  0
   -2.6851   -1.6257    1.7948 H   0  0  0  0  0  0  0  0  0  0  0  0
   -4.8671    1.3428   -1.5209 H   0  0  0  0  0  0  0  0  0  0  0  0
   -4.9999   -0.8874    2.1672 H   0  0  0  0  0  0  0  0  0  0  0  0
  1  2  1  0
  1  3  1  0
  4  3  2  0
  3  5  1  0
  6  4  1  0
  5  7  2  0
  8  6  2  0
  7  8  1  0
  9  8  1  0
  9 10  1  0
  9 11  2  0
 10 12  1  0
  2 13  2  0
 14  2  1  0
 13 15  1  0
 16 14  2  0
 15 17  2  0
 17 16  1  0
 17 18  1  0
  1 19  1  0
  4 20  1  0
  5 21  1  0
  6 22  1  0
  7 23  1  0
 12 24  1  0
 12 25  1  0
 12 26  1  0
 13 27  1  0
 14 28  1  0
 15 29  1  0
 16 30  1  0
M  END
$$$$

     RDKit          3D

 31 32  0  0  0  0  0  0  0  0999 V2000
   -1.3700   -0.8068   -0.8228 N   0  0  0  0  0  0  0  0  0  0  0  0
   -2.5270   -0.0875   -0.5425 C   0  0  0  0  0  0  0  0  0  0  0  0
   -0.1340   -0.4974   -0.2792 C   0  0  0  0  0  0  0  0  0  0  0  0
    0.4467   -1.1952    0.7209 C   0  0  0  0  0  0  0  0  0  0  0  0
    0.6798    0.5034   -0.9704 C   0  0  0  0  0  0  0  0  0  0  0  0
    1.8957   -1.2412    0.8454 C   0  0  0  0  0  0  0  0  0  0  0  0
    2.0125    0.5494   -0.7884 C   0  0  0  0  0  0  0  0  0  0  0  0
    2.6478   -0.3852    0.1273 C   0  0  0  0  0  0  0  0  0  0  0  0
    4.1176   -0.4734    0.2389 C   0  0  0  0  0  0  0  0  0  0  0  0
    4.5737    0.5646    0.9824 O   0  0  0  0  0  0  0  0  0  0  0  0
    4.8041   -1.3433   -0.2711 O   0  0  0  0  0  0  0  0  0  0  0  0
    5.4590    0.1404    2.0159 C   0  0  0  0  0  0  0  0  0  0  0  0
   -3.1251   -0.0145    0.6665 C   0  0  0  0  0  0  0  0  0  0  0  0
   -3.2171    0.5274   -1.6843 C   0  0  0  0  0  0  0  0  0  0  0  0
   -4.4537    0.5599    0.8112 C   0  0  0  0  0  0  0  0  0  0  0  0
   -4.4299    1.0866   -1.5503 C   0  0  0  0  0  0  0  0  0  0  0  0
   -2.5624    0.4866   -2.8948 O   0  0  0  0  0  0  0  0  0  0  0  0
   -5.0790    1.0935   -0.2527 C   0  0  0  0  0  0  0  0  0  0  0  0
   -1.5598   -1.8078   -0.7608 H   0  0  0  0  0  0  0  0  0  0  0  0
   -0.1452   -1.6984    1.4775 H   0  0  0  0  0  0  0  0  0  0  0  0
    0.1825    1.2144   -1.6223 H   0  0  0  0  0  0  0  0  0  0  0  0
    2.3310   -1.9504    1.5418 H   0  0  0  0  0  0  0  0  0  0  0  0
    2.6271    1.2897   -1.2899 H   0  0  0  0  0  0  0  0  0  0  0  0
    5.6661    0.9980    2.6618 H   0  0  0  0  0  0  0  0  0  0  0  0
    5.0011   -0.6491    2.6210 H   0  0  0  0  0  0  0  0  0  0  0  0
    6.4033   -0.2090    1.5870 H   0  0  0  0  0  0  0  0  0  0  0  0
   -2.6005   -0.2957    1.5727 H   0  0  0  0  0  0  0  0  0  0  0  0
   -4.9125    0.5602    1.7941 H   0  0  0  0  0  0  0  0  0  0  0  0
   -4.9371    1.5345   -2.3967 H   0  0  0  0  0  0  0  0  0  0  0  0
   -1.7294    0.0093   -2.7096 H   0  0  0  0  0  0  0  0  0  0  0  0
   -6.0654    1.5367   -0.1702 H   0  0  0  0  0  0  0  0  0  0  0  0
  1  2  1  0
  1  3  1  0
  4  3  2  0
  3  5  1  0
  6  4  1  0
  5  7  2  0
  8  6  2  0
  7  8  1  0
  9  8  1  0
  9 10  1  0
  9 11  2  0
 10 12  1  0
  2 13  2  0
 14  2  1  0
 13 15  1  0
 16 14  2  0
 14 17  1  0
 15 18  2  0
 18 16  1  0
  1 19  1  0
  4 20  1  0
  5 21  1  0
  6 22  1  0
  7 23  1  0
 12 24  1  0
 12 25  1  0
 12 26  1  0
 13 27  1  0
 15 28  1  0
 16 29  1  0
 17 30  1  0
 18 31  1  0
M  END
$$$$

     RDKit          3D

 34 35  0  0  0  0  0  0  0  0999 V2000
   -0.3367    0.5850    1.5248 N   0  0  0  0  0  0  0  0  0  0  0  0
   -1.4983    0.9887    0.8729 C   0  0  0  0  0  0  0  0  0  0  0  0
    0.6806   -0.1002    0.8799 C   0  0  0  0  0  0  0  0  0  0  0  0
    0.5953   -1.3801    0.4566 C   0  0  0  0  0  0  0  0  0  0  0  0
    1.9677    0.5838    0.7641 C   0  0  0  0  0  0  0  0  0  0  0  0
    1.7719   -2.0961   -0.0106 C   0  0  0  0  0  0  0  0  0  0  0  0
    3.0497   -0.0534    0.2807 C   0  0  0  0  0  0  0  0  0  0  0  0
    2.9393   -1.4390   -0.1449 C   0  0  0  0  0  0  0  0  0  0  0  0
    4.0962   -2.1612   -0.7093 C   0  0  0  0  0  0  0  0  0  0  0  0
    4.0794   -2.0573   -2.0613 O   0  0  0  0  0  0  0  0  0  0  0  0
    4.9295   -2.7621   -0.0513 O   0  0  0  0  0  0  0  0  0  0  0  0
    5.3198   -1.5837   -2.5790 C   0  0  0  0  0  0  0  0  0  0  0  0
   -1.5459    1.9786   -0.0425 C   0  0  0  0  0  0  0  0  0  0  0  0
   -2.7632    0.3429    1.2475 C   0  0  0  0  0  0  0  0  0  0  0  0
   -2.7666    2.2609   -0.7781 C   0  0  0  0  0  0  0  0  0  0  0  0
   -3.9095    0.6369    0.6060 C   0  0  0  0  0  0  0  0  0  0  0  0
   -2.6793   -0.5569    2.2893 O   0  0  0  0  0  0  0  0  0  0  0  0
   -3.9125    1.6199   -0.4741 C   0  0  0  0  0  0  0  0  0  0  0  0
   -5.2063    1.8641   -1.1868 C   0  0  0  0  0  0  0  0  0  0  0  0
   -0.6148    0.0681    2.3642 H   0  0  0  0  0  0  0  0  0  0  0  0
   -0.3605   -1.8924    0.4175 H   0  0  0  0  0  0  0  0  0  0  0  0
    2.0238    1.6179    1.0882 H   0  0  0  0  0  0  0  0  0  0  0  0
    1.6646   -3.1433   -0.2741 H   0  0  0  0  0  0  0  0  0  0  0  0
    4.0096    0.4448    0.2040 H   0  0  0  0  0  0  0  0  0  0  0  0
    5.6186   -0.6533   -2.0850 H   0  0  0  0  0  0  0  0  0  0  0  0
    5.1909   -1.3849   -3.6464 H   0  0  0  0  0  0  0  0  0  0  0  0
    6.0972   -2.3446   -2.4577 H   0  0  0  0  0  0  0  0  0  0  0  0
   -0.6651    2.5699   -0.2667 H   0  0  0  0  0  0  0  0  0  0  0  0
   -2.7155    3.0021   -1.5690 H   0  0  0  0  0  0  0  0  0  0  0  0
   -4.8498    0.1692    0.8734 H   0  0  0  0  0  0  0  0  0  0  0  0
   -3.5727   -0.9044    2.4500 H   0  0  0  0  0  0  0  0  0  0  0  0
   -5.5701    0.9410   -1.6506 H   0  0  0  0  0  0  0  0  0  0  0  0
   -5.0992    2.6132   -1.9787 H   0  0  0  0  0  0  0  0  0  0  0  0
   -5.9682    2.2260   -0.4882 H   0  0  0  0  0  0  0  0  0  0  0  0
  1  2  1  0
  1  3  1  0
  4  3  2  0
  3  5  1  0
  6  4  1  0
  5  7  2  0
  8  6  2  0
  7  8  1  0
  9  8  1  0
  9 10  1  0
  9 11  2  0
 10 12  1  0
  2 13  2  0
 14  2  1  0
 13 15  1  0
 16 14  2  0
 14 17  1  0
 15 18  2  0
 18 16  1  0
 18 19  1  0
  1 20  1  0
  4 21  1  0
  5 22  1  0
  6 23  1  0
  7 24  1  0
 12 25  1  0
 12 26  1  0
 12 27  1  0
 13 28  1  0
 15 29  1  0
 16 30  1  0
 17 31  1  0
 19 32  1  0
 19 33  1  0
 19 34  1  0
M  END
$$$$

     RDKit          3D

 30 31  0  0  0  0  0  0  0  0999 V2000
   -1.5786    0.4455    1.2114 N   0  0  0  0  0  0  0  0  0  0  0  0
   -2.5972    0.1173    0.3247 C   0  0  0  0  0  0  0  0  0  0  0  0
   -0.2444    0.1847    0.9480 C   0  0  0  0  0  0  0  0  0  0  0  0
    0.5156    0.8816    0.0753 C   0  0  0  0  0  0  0  0  0  0  0  0
    0.4070   -0.8285    1.7775 C   0  0  0  0  0  0  0  0  0  0  0  0
    1.9631    0.7388    0.0632 C   0  0  0  0  0  0  0  0  0  0  0  0
    1.7372   -1.0220    1.7171 C   0  0  0  0  0  0  0  0  0  0  0  0
    2.5405   -0.2259    0.8039 C   0  0  0  0  0  0  0  0  0  0  0  0
    3.9916   -0.4533    0.6558 C   0  0  0  0  0  0  0  0  0  0  0  0
    4.2024   -1.5648   -0.0914 O   0  0  0  0  0  0  0  0  0  0  0  0
    4.8595    0.2500    1.1468 O   0  0  0  0  0  0  0  0  0  0  0  0
    5.0696   -1.3133   -1.1940 C   0  0  0  0  0  0  0  0  0  0  0  0
   -3.1484   -1.1135    0.2470 C   0  0  0  0  0  0  0  0  0  0  0  0
   -3.1688    1.1712   -0.5178 C   0  0  0  0  0  0  0  0  0  0  0  0
   -4.2388   -1.3927   -0.6741 C   0  0  0  0  0  0  0  0  0  0  0  0
   -4.1837    0.9250   -1.3616 C   0  0  0  0  0  0  0  0  0  0  0  0
   -2.6558    2.4166   -0.4216 F   0  0  0  0  0  0  0  0  0  0  0  0
   -4.7372   -0.4135   -1.4489 C   0  0  0  0  0  0  0  0  0  0  0  0
   -1.6903    1.4056    1.5397 H   0  0  0  0  0  0  0  0  0  0  0  0
    0.0695    1.5753   -0.6299 H   0  0  0  0  0  0  0  0  0  0  0  0
   -0.2132   -1.4164    2.4462 H   0  0  0  0  0  0  0  0  0  0  0  0
    2.5448    1.4562   -0.5066 H   0  0  0  0  0  0  0  0  0  0  0  0
    2.2290   -1.7687    2.3313 H   0  0  0  0  0  0  0  0  0  0  0  0
    4.7128   -0.4632   -1.7849 H   0  0  0  0  0  0  0  0  0  0  0  0
    5.0780   -2.2014   -1.8318 H   0  0  0  0  0  0  0  0  0  0  0  0
    6.0888   -1.1286   -0.8404 H   0  0  0  0  0  0  0  0  0  0  0  0
   -2.7720   -1.9307    0.8532 H   0  0  0  0  0  0  0  0  0  0  0  0
   -4.6301   -2.4038   -0.7165 H   0  0  0  0  0  0  0  0  0  0  0  0
   -4.6010    1.7119   -1.9778 H   0  0  0  0  0  0  0  0  0  0  0  0
   -5.5497   -0.5971   -2.1438 H   0  0  0  0  0  0  0  0  0  0  0  0
  1  2  1  0
  1  3  1  0
  4  3  2  0
  3  5  1  0
  6  4  1  0
  5  7  2  0
  8  6  2  0
  7  8  1  0
  9  8  1  0
  9 10  1  0
  9 11  2  0
 10 12  1  0
  2 13  2  0
 14  2  1  0
 13 15  1  0
 16 14  2  0
 14 17  1  0
 15 18  2  0
 18 16  1  0
  1 19  1  0
  4 20  1  0
  5 21  1  0
  6 22  1  0
  7 23  1  0
 12 24  1  0
 12 25  1  0
 12 26  1  0
 13 27  1  0
 15 28  1  0
 16 29  1  0
 18 30  1  0
M  END
$$$$

     RDKit          3D

 30 31  0  0  0  0  0  0  0  0999 V2000
   -1.2530   -1.0250    0.1715 N   0  0  0  0  0  0  0  0  0  0  0  0
   -2.4535   -0.6000    0.7095 C   0  0  0  0  0  0  0  0  0  0  0  0
   -0.1507   -0.2079    0.0089 C   0  0  0  0  0  0  0  0  0  0  0  0
    0.7018    0.1358    0.9983 C   0  0  0  0  0  0  0  0  0  0  0  0
    0.2302    0.1210   -1.3640 C   0  0  0  0  0  0  0  0  0  0  0  0
    2.0808    0.4960    0.6993 C   0  0  0  0  0  0  0  0  0  0  0  0
    1.4833    0.5178   -1.6530 C   0  0  0  0  0  0  0  0  0  0  0  0
    2.4626    0.6359   -0.5848 C   0  0  0  0  0  0  0  0  0  0  0  0
    3.8906    0.8743   -0.8703 C   0  0  0  0  0  0  0  0  0  0  0  0
    4.5105   -0.3070   -1.1115 O   0  0  0  0  0  0  0  0  0  0  0  0
    4.4232    1.9719   -0.8728 O   0  0  0  0  0  0  0  0  0  0  0  0
    5.2274   -0.2939   -2.3428 C   0  0  0  0  0  0  0  0  0  0  0  0
   -3.4725   -0.1315   -0.0435 C   0  0  0  0  0  0  0  0  0  0  0  0
   -2.6761   -0.7732    2.1479 C   0  0  0  0  0  0  0  0  0  0  0  0
   -4.7694    0.1583    0.5450 C   0  0  0  0  0  0  0  0  0  0  0  0
   -3.8724   -0.4938    2.6978 C   0  0  0  0  0  0  0  0  0  0  0  0
   -4.9514   -0.0193    1.8614 C   0  0  0  0  0  0  0  0  0  0  0  0
   -6.1420    0.2390    2.4352 F   0  0  0  0  0  0  0  0  0  0  0  0
   -0.9885   -1.9509    0.5019 H   0  0  0  0  0  0  0  0  0  0  0  0
    0.3414    0.3198    2.0052 H   0  0  0  0  0  0  0  0  0  0  0  0
   -0.5256    0.0370   -2.1373 H   0  0  0  0  0  0  0  0  0  0  0  0
    2.7076    0.8341    1.5192 H   0  0  0  0  0  0  0  0  0  0  0  0
    1.7765    0.7698   -2.6656 H   0  0  0  0  0  0  0  0  0  0  0  0
    4.5810    0.0287   -3.1657 H   0  0  0  0  0  0  0  0  0  0  0  0
    5.5716   -1.3111   -2.5486 H   0  0  0  0  0  0  0  0  0  0  0  0
    6.1012    0.3605   -2.2662 H   0  0  0  0  0  0  0  0  0  0  0  0
   -3.3452    0.0459   -1.1060 H   0  0  0  0  0  0  0  0  0  0  0  0
   -1.8563   -1.1251    2.7636 H   0  0  0  0  0  0  0  0  0  0  0  0
   -5.5717    0.5135   -0.0899 H   0  0  0  0  0  0  0  0  0  0  0  0
   -4.0616   -0.6127    3.7575 H   0  0  0  0  0  0  0  0  0  0  0  0
  1  2  1  0
  1  3  1  0
  4  3  2  0
  3  5  1  0
  6  4  1  0
  5  7  2  0
  8  6  2  0
  7  8  1  0
  9  8  1  0
  9 10  1  0
  9 11  2  0
 10 12  1  0
  2 13  2  0
 14  2  1  0
 13 15  1  0
 16 14  2  0
 15 17  2  0
 17 16  1  0
 17 18  1  0
  1 19  1  0
  4 20  1  0
  5 21  1  0
  6 22  1  0
  7 23  1  0
 12 24  1  0
 12 25  1  0
 12 26  1  0
 13 27  1  0
 14 28  1  0
 15 29  1  0
 16 30  1  0
M  END
$$$$

     RDKit          3D

 30 31  0  0  0  0  0  0  0  0999 V2000
   -1.2237    0.1798    0.8781 N   0  0  0  0  0  0  0  0  0  0  0  0
   -2.5339   -0.0592    0.5046 C   0  0  0  0  0  0  0  0  0  0  0  0
   -0.1352   -0.0515    0.0598 C   0  0  0  0  0  0  0  0  0  0  0  0
    0.2309    0.7364   -0.9743 C   0  0  0  0  0  0  0  0  0  0  0  0
    0.7970   -1.0959    0.4827 C   0  0  0  0  0  0  0  0  0  0  0  0
    1.6210    0.7944   -1.4059 C   0  0  0  0  0  0  0  0  0  0  0  0
    2.0728   -1.0901    0.0546 C   0  0  0  0  0  0  0  0  0  0  0  0
    2.5184   -0.0422   -0.8497 C   0  0  0  0  0  0  0  0  0  0  0  0
    3.9499    0.1606   -1.1449 C   0  0  0  0  0  0  0  0  0  0  0  0
    4.4793    1.0342   -0.2535 O   0  0  0  0  0  0  0  0  0  0  0  0
    4.5508   -0.3757   -2.0613 O   0  0  0  0  0  0  0  0  0  0  0  0
    5.6528    0.5201    0.3706 C   0  0  0  0  0  0  0  0  0  0  0  0
   -3.1695   -1.2243    0.7495 C   0  0  0  0  0  0  0  0  0  0  0  0
   -3.3209    1.0522   -0.0324 C   0  0  0  0  0  0  0  0  0  0  0  0
   -4.6163   -1.3211    0.6622 C   0  0  0  0  0  0  0  0  0  0  0  0
   -4.6563    0.9519   -0.1615 C   0  0  0  0  0  0  0  0  0  0  0  0
   -5.3327   -0.2726    0.2227 C   0  0  0  0  0  0  0  0  0  0  0  0
   -1.1286    1.0539    1.3909 H   0  0  0  0  0  0  0  0  0  0  0  0
   -0.5155    1.1865   -1.6206 H   0  0  0  0  0  0  0  0  0  0  0  0
    0.4258   -1.8750    1.1402 H   0  0  0  0  0  0  0  0  0  0  0  0
    1.8538    1.3660   -2.2992 H   0  0  0  0  0  0  0  0  0  0  0  0
    2.7727   -1.8646    0.3478 H   0  0  0  0  0  0  0  0  0  0  0  0
    5.4644   -0.4693    0.8004 H   0  0  0  0  0  0  0  0  0  0  0  0
    6.4749    0.4704   -0.3501 H   0  0  0  0  0  0  0  0  0  0  0  0
    5.9373    1.2014    1.1771 H   0  0  0  0  0  0  0  0  0  0  0  0
   -2.6123   -2.1199    1.0012 H   0  0  0  0  0  0  0  0  0  0  0  0
   -2.8045    1.9571   -0.3318 H   0  0  0  0  0  0  0  0  0  0  0  0
   -5.0904   -2.2529    0.9495 H   0  0  0  0  0  0  0  0  0  0  0  0
   -5.2490    1.7679   -0.5600 H   0  0  0  0  0  0  0  0  0  0  0  0
   -6.4131   -0.3186    0.1406 H   0  0  0  0  0  0  0  0  0  0  0  0
  1  2  1  0
  1  3  1  0
  4  3  2  0
  3  5  1  0
  6  4  1  0
  5  7  2  0
  8  6  2  0
  7  8  1  0
  9  8  1  0
  9 10  1  0
  9 11  2  0
 10 12  1  0
  2 13  2  0
 14  2  1  0
 13 15  1  0
 16 14  2  0
 15 17  2  0
 17 16  1  0
  1 18  1  0
  4 19  1  0
  5 20  1  0
  6 21  1  0
  7 22  1  0
 12 23  1  0
 12 24  1  0
 12 25  1  0
 13 26  1  0
 14 27  1  0
 15 28  1  0
 16 29  1  0
 17 30  1  0
M  END
$$$$

     RDKit          3D

 30 31  0  0  0  0  0  0  0  0999 V2000
   -1.3295   -0.7128   -0.7413 N   0  0  0  0  0  0  0  0  0  0  0  0
   -2.5789   -0.5727   -0.1505 C   0  0  0  0  0  0  0  0  0  0  0  0
   -0.1725   -0.2088   -0.1709 C   0  0  0  0  0  0  0  0  0  0  0  0
    0.1824    1.0945   -0.1837 C   0  0  0  0  0  0  0  0  0  0  0  0
    0.8003   -1.1825    0.3228 C   0  0  0  0  0  0  0  0  0  0  0  0
    1.5602    1.4960    0.0591 C   0  0  0  0  0  0  0  0  0  0  0  0
    2.0705   -0.8189    0.5783 C   0  0  0  0  0  0  0  0  0  0  0  0
    2.4782    0.5607    0.3687 C   0  0  0  0  0  0  0  0  0  0  0  0
    3.8926    0.9675    0.4778 C   0  0  0  0  0  0  0  0  0  0  0  0
    4.4817    0.8935   -0.7410 O   0  0  0  0  0  0  0  0  0  0  0  0
    4.4341    1.3217    1.5121 O   0  0  0  0  0  0  0  0  0  0  0  0
    5.6909    0.1398   -0.7094 C   0  0  0  0  0  0  0  0  0  0  0  0
   -3.0373   -1.3911    0.8227 C   0  0  0  0  0  0  0  0  0  0  0  0
   -3.4827    0.4715   -0.6464 C   0  0  0  0  0  0  0  0  0  0  0  0
   -4.3554   -1.1948    1.4063 C   0  0  0  0  0  0  0  0  0  0  0  0
   -4.7071    0.6483   -0.1260 C   0  0  0  0  0  0  0  0  0  0  0  0
   -3.0569    1.2580   -1.6578 F   0  0  0  0  0  0  0  0  0  0  0  0
   -5.1470   -0.2145    0.9452 C   0  0  0  0  0  0  0  0  0  0  0  0
   -6.3726   -0.0147    1.4668 F   0  0  0  0  0  0  0  0  0  0  0  0
   -1.3714   -0.4551   -1.7287 H   0  0  0  0  0  0  0  0  0  0  0  0
   -0.5653    1.8780   -0.2545 H   0  0  0  0  0  0  0  0  0  0  0  0
    0.4660   -2.2019    0.4841 H   0  0  0  0  0  0  0  0  0  0  0  0
    1.7815    2.5573    0.1163 H   0  0  0  0  0  0  0  0  0  0  0  0
    2.7972   -1.5294    0.9563 H   0  0  0  0  0  0  0  0  0  0  0  0
    6.0305   -0.0047   -1.7386 H   0  0  0  0  0  0  0  0  0  0  0  0
    6.4643    0.6860   -0.1606 H   0  0  0  0  0  0  0  0  0  0  0  0
    5.5256   -0.8431   -0.2557 H   0  0  0  0  0  0  0  0  0  0  0  0
   -2.4233   -2.1977    1.2093 H   0  0  0  0  0  0  0  0  0  0  0  0
   -4.6796   -1.8462    2.2091 H   0  0  0  0  0  0  0  0  0  0  0  0
   -5.3763    1.4161   -0.4904 H   0  0  0  0  0  0  0  0  0  0  0  0
  1  2  1  0
  1  3  1  0
  4  3  2  0
  3  5  1  0
  6  4  1  0
  5  7  2  0
  8  6  2  0
  7  8  1  0
  9  8  1  0
  9 10  1  0
  9 11  2  0
 10 12  1  0
  2 13  2  0
 14  2  1  0
 13 15  1  0
 16 14  2  0
 14 17  1  0
 15 18  2  0
 18 16  1  0
 18 19  1  0
  1 20  1  0
  4 21  1  0
  5 22  1  0
  6 23  1  0
  7 24  1  0
 12 25  1  0
 12 26  1  0
 12 27  1  0
 13 28  1  0
 15 29  1  0
 16 30  1  0
M  END
$$$$

     RDKit          3D

 24 24  0  0  0  0  0  0  0  0999 V2000
   -2.6686   -1.0801    0.0719 C   0  0  0  0  0  0  0  0  0  0  0  0
   -2.8870   -0.7774   -1.2313 O   0  0  0  0  0  0  0  0  0  0  0  0
   -1.3056   -0.6600    0.4536 C   0  0  0  0  0  0  0  0  0  0  0  0
   -3.4610   -1.6243    0.8230 O   0  0  0  0  0  0  0  0  0  0  0  0
   -0.2958   -1.5386    0.2919 C   0  0  0  0  0  0  0  0  0  0  0  0
   -1.0450    0.6757    0.9729 C   0  0  0  0  0  0  0  0  0  0  0  0
    1.0784   -1.1028    0.5064 C   0  0  0  0  0  0  0  0  0  0  0  0
    0.2248    1.0804    1.1625 C   0  0  0  0  0  0  0  0  0  0  0  0
    1.3240    0.1788    0.8450 C   0  0  0  0  0  0  0  0  0  0  0  0
    2.7243    0.6478    0.8376 C   0  0  0  0  0  0  0  0  0  0  0  0
    2.9558    1.3655   -0.2888 O   0  0  0  0  0  0  0  0  0  0  0  0
    3.5330    0.4297    1.7245 O   0  0  0  0  0  0  0  0  0  0  0  0
    4.1027    0.9001   -0.9959 C   0  0  0  0  0  0  0  0  0  0  0  0
   -4.1165   -0.0824   -1.4251 C   0  0  0  0  0  0  0  0  0  0  0  0
   -0.4802   -2.6010    0.1596 H   0  0  0  0  0  0  0  0  0  0  0  0
   -1.8864    1.3178    1.2111 H   0  0  0  0  0  0  0  0  0  0  0  0
    1.8507   -1.8648    0.5624 H   0  0  0  0  0  0  0  0  0  0  0  0
    0.4562    2.0648    1.5569 H   0  0  0  0  0  0  0  0  0  0  0  0
    5.0136    1.1279   -0.4335 H   0  0  0  0  0  0  0  0  0  0  0  0
    4.0327   -0.1759   -1.1862 H   0  0  0  0  0  0  0  0  0  0  0  0
    4.1469    1.4209   -1.9564 H   0  0  0  0  0  0  0  0  0  0  0  0
   -4.1798    0.7891   -0.7651 H   0  0  0  0  0  0  0  0  0  0  0  0
   -4.9630   -0.7537   -1.2503 H   0  0  0  0  0  0  0  0  0  0  0  0
   -4.1542    0.2626   -2.4620 H   0  0  0  0  0  0  0  0  0  0  0  0
  1  2  1  0
  1  3  1  0
  1  4  2  0
  5  3  2  0
  3  6  1  0
  7  5  1  0
  6  8  2  0
  9  7  2  0
  8  9  1  0
 10  9  1  0
 10 11  1  0
 10 12  2  0
 11 13  1  0
  2 14  1  0
  5 15  1  0
  6 16  1  0
  7 17  1  0
  8 18  1  0
 13 19  1  0
 13 20  1  0
 13 21  1  0
 14 22  1  0
 14 23  1  0
 14 24  1  0
M  END
$$$$

     RDKit          3D

 30 31  0  0  0  0  0  0  0  0999 V2000
    0.8538    1.1861    0.0375 N   0  0  0  0  0  0  0  0  0  0  0  0
    2.0188    0.4798   -0.1318 C   0  0  0  0  0  0  0  0  0  0  0  0
    0.1914    1.1978    1.2400 C   0  0  0  0  0  0  0  0  0  0  0  0
   -1.1422    0.5542    1.2001 C   0  0  0  0  0  0  0  0  0  0  0  0
    0.6504    1.7231    2.2488 O   0  0  0  0  0  0  0  0  0  0  0  0
   -1.2036   -0.7871    1.3022 C   0  0  0  0  0  0  0  0  0  0  0  0
   -2.3124    1.3004    0.7645 C   0  0  0  0  0  0  0  0  0  0  0  0
   -2.3116   -1.4997    0.6865 C   0  0  0  0  0  0  0  0  0  0  0  0
   -3.3754    0.6408    0.2690 C   0  0  0  0  0  0  0  0  0  0  0  0
   -3.3645   -0.8190    0.1873 C   0  0  0  0  0  0  0  0  0  0  0  0
   -4.5516   -1.4821   -0.4410 C   0  0  0  0  0  0  0  0  0  0  0  0
    2.0501   -0.6184   -0.9126 C   0  0  0  0  0  0  0  0  0  0  0  0
    3.2795    1.1422    0.2025 C   0  0  0  0  0  0  0  0  0  0  0  0
    3.2471   -0.9277   -1.6946 C   0  0  0  0  0  0  0  0  0  0  0  0
    4.4061    0.8148   -0.4517 C   0  0  0  0  0  0  0  0  0  0  0  0
    3.2825    2.0807    1.2103 O   0  0  0  0  0  0  0  0  0  0  0  0
    3.2033   -2.4453   -3.0913 I   0  0  0  0  0  0  0  0  0  0  0  0
    4.3774   -0.2257   -1.4679 C   0  0  0  0  0  0  0  0  0  0  0  0
    0.3275    1.4239   -0.7947 H   0  0  0  0  0  0  0  0  0  0  0  0
   -0.4946   -1.3494    1.9024 H   0  0  0  0  0  0  0  0  0  0  0  0
   -2.3078    2.3811    0.8638 H   0  0  0  0  0  0  0  0  0  0  0  0
   -2.2680   -2.5842    0.6672 H   0  0  0  0  0  0  0  0  0  0  0  0
   -4.2632    1.1764   -0.0539 H   0  0  0  0  0  0  0  0  0  0  0  0
   -4.6843   -1.1365   -1.4721 H   0  0  0  0  0  0  0  0  0  0  0  0
   -4.4405   -2.5716   -0.4677 H   0  0  0  0  0  0  0  0  0  0  0  0
   -5.4627   -1.2534    0.1224 H   0  0  0  0  0  0  0  0  0  0  0  0
    1.2445   -1.3447   -0.8862 H   0  0  0  0  0  0  0  0  0  0  0  0
    5.3497    1.2940   -0.2142 H   0  0  0  0  0  0  0  0  0  0  0  0
    2.4004    2.0685    1.6406 H   0  0  0  0  0  0  0  0  0  0  0  0
    5.2999   -0.4187   -2.0067 H   0  0  0  0  0  0  0  0  0  0  0  0
  1  2  1  0
  3  1  1  0
  3  4  1  0
  3  5  2  0
  4  6  2  0
  7  4  1  0
  6  8  1  0
  9  7  2  0
  8 10  2  0
 10  9  1  0
 10 11  1  0
  2 12  2  0
 13  2  1  0
 12 14  1  0
 15 13  2  0
 13 16  1  0
 14 17  1  0
 14 18  2  0
 18 15  1  0
  1 19  1  0
  6 20  1  0
  7 21  1  0
  8 22  1  0
  9 23  1  0
 11 24  1  0
 11 25  1  0
 11 26  1  0
 12 27  1  0
 15 28  1  0
 16 29  1  0
 18 30  1  0
M  END
$$$$

     RDKit          3D

 29 30  0  0  0  0  0  0  0  0999 V2000
   -0.8359   -1.9954   -0.0558 N   0  0  0  0  0  0  0  0  0  0  0  0
   -1.8935   -1.1992    0.3326 C   0  0  0  0  0  0  0  0  0  0  0  0
   -0.2496   -1.8383   -1.2956 C   0  0  0  0  0  0  0  0  0  0  0  0
    0.8908   -0.8859   -1.3030 C   0  0  0  0  0  0  0  0  0  0  0  0
   -0.5911   -2.4441   -2.3044 O   0  0  0  0  0  0  0  0  0  0  0  0
    2.0968   -1.3459   -0.9198 C   0  0  0  0  0  0  0  0  0  0  0  0
    0.6686    0.5466   -1.4191 C   0  0  0  0  0  0  0  0  0  0  0  0
    3.0362   -0.4326   -0.2890 C   0  0  0  0  0  0  0  0  0  0  0  0
    1.5777    1.4024   -0.9176 C   0  0  0  0  0  0  0  0  0  0  0  0
    2.7943    0.8952   -0.2839 C   0  0  0  0  0  0  0  0  0  0  0  0
    3.7190    1.8984    0.3329 C   0  0  0  0  0  0  0  0  0  0  0  0
   -3.0816   -1.2750   -0.2990 C   0  0  0  0  0  0  0  0  0  0  0  0
   -1.6893   -0.1528    1.3451 C   0  0  0  0  0  0  0  0  0  0  0  0
   -3.9994   -0.1497   -0.2523 C   0  0  0  0  0  0  0  0  0  0  0  0
   -2.5880    0.8481    1.4452 C   0  0  0  0  0  0  0  0  0  0  0  0
   -0.2209   -0.2541    2.4997 Br  0  0  0  0  0  0  0  0  0  0  0  0
   -3.7592    0.8749    0.5844 C   0  0  0  0  0  0  0  0  0  0  0  0
   -0.1796   -2.2104    0.6877 H   0  0  0  0  0  0  0  0  0  0  0  0
    2.4299   -2.3483   -1.1671 H   0  0  0  0  0  0  0  0  0  0  0  0
   -0.2348    0.8936   -1.9093 H   0  0  0  0  0  0  0  0  0  0  0  0
    3.9339   -0.8538    0.1522 H   0  0  0  0  0  0  0  0  0  0  0  0
    1.4307    2.4763   -0.9902 H   0  0  0  0  0  0  0  0  0  0  0  0
    3.2163    2.4361    1.1439 H   0  0  0  0  0  0  0  0  0  0  0  0
    4.0516    2.6273   -0.4138 H   0  0  0  0  0  0  0  0  0  0  0  0
    4.6120    1.4231    0.7523 H   0  0  0  0  0  0  0  0  0  0  0  0
   -3.3495   -2.1368   -0.9036 H   0  0  0  0  0  0  0  0  0  0  0  0
   -4.8696   -0.1653   -0.8996 H   0  0  0  0  0  0  0  0  0  0  0  0
   -2.4845    1.6405    2.1795 H   0  0  0  0  0  0  0  0  0  0  0  0
   -4.4311    1.7250    0.6468 H   0  0  0  0  0  0  0  0  0  0  0  0
  1  2  1  0
  3  1  1  0
  3  4  1  0
  3  5  2  0
  4  6  2  0
  7  4  1  0
  6  8  1  0
  9  7  2  0
  8 10  2  0
 10  9  1  0
 10 11  1  0
  2 12  2  0
 13  2  1  0
 12 14  1  0
 15 13  2  0
 13 16  1  0
 14 17  2  0
 17 15  1  0
  1 18  1  0
  6 19  1  0
  7 20  1  0
  8 21  1  0
  9 22  1  0
 11 23  1  0
 11 24  1  0
 11 25  1  0
 12 26  1  0
 14 27  1  0
 15 28  1  0
 17 29  1  0
M  END
$$$$

     RDKit          3D

 32 33  0  0  0  0  0  0  0  0999 V2000
   -0.2460   -1.4706    1.1106 N   0  0  0  0  0  0  0  0  0  0  0  0
   -1.2931   -0.7463    0.5894 C   0  0  0  0  0  0  0  0  0  0  0  0
    0.6757   -0.8551    1.9276 C   0  0  0  0  0  0  0  0  0  0  0  0
    1.7841   -0.1954    1.1940 C   0  0  0  0  0  0  0  0  0  0  0  0
    0.6243   -0.8964    3.1510 O   0  0  0  0  0  0  0  0  0  0  0  0
    1.6980    1.1276    0.9594 C   0  0  0  0  0  0  0  0  0  0  0  0
    2.8893   -0.9634    0.6438 C   0  0  0  0  0  0  0  0  0  0  0  0
    2.5935    1.7452   -0.0055 C   0  0  0  0  0  0  0  0  0  0  0  0
    3.7502   -0.3777   -0.2086 C   0  0  0  0  0  0  0  0  0  0  0  0
    3.5854    1.0283   -0.5733 C   0  0  0  0  0  0  0  0  0  0  0  0
    4.5500    1.6006   -1.5653 C   0  0  0  0  0  0  0  0  0  0  0  0
   -1.3910   -0.5379   -0.7360 C   0  0  0  0  0  0  0  0  0  0  0  0
   -2.4391   -0.4735    1.4437 C   0  0  0  0  0  0  0  0  0  0  0  0
   -2.6821   -0.2368   -1.3326 C   0  0  0  0  0  0  0  0  0  0  0  0
   -3.6232   -0.1414    0.8976 C   0  0  0  0  0  0  0  0  0  0  0  0
   -3.7651   -0.0422   -0.5528 C   0  0  0  0  0  0  0  0  0  0  0  0
   -5.1237    0.2795   -1.0936 C   0  0  0  0  0  0  0  0  0  0  0  0
   -0.5342   -2.3625    1.4977 H   0  0  0  0  0  0  0  0  0  0  0  0
    1.0030    1.7615    1.5007 H   0  0  0  0  0  0  0  0  0  0  0  0
    3.0012   -2.0004    0.9404 H   0  0  0  0  0  0  0  0  0  0  0  0
    2.4389    2.7942   -0.2373 H   0  0  0  0  0  0  0  0  0  0  0  0
    4.5832   -0.9335   -0.6269 H   0  0  0  0  0  0  0  0  0  0  0  0
    5.5763    1.5298   -1.1894 H   0  0  0  0  0  0  0  0  0  0  0  0
    4.3440    2.6568   -1.7702 H   0  0  0  0  0  0  0  0  0  0  0  0
    4.4901    1.0604   -2.5161 H   0  0  0  0  0  0  0  0  0  0  0  0
   -0.5172   -0.5488   -1.3788 H   0  0  0  0  0  0  0  0  0  0  0  0
   -2.3161   -0.5302    2.5209 H   0  0  0  0  0  0  0  0  0  0  0  0
   -2.7335   -0.1673   -2.4141 H   0  0  0  0  0  0  0  0  0  0  0  0
   -4.4833    0.0690    1.5254 H   0  0  0  0  0  0  0  0  0  0  0  0
   -5.1235    0.3283   -2.1878 H   0  0  0  0  0  0  0  0  0  0  0  0
   -5.4690    1.2484   -0.7173 H   0  0  0  0  0  0  0  0  0  0  0  0
   -5.8474   -0.4870   -0.7964 H   0  0  0  0  0  0  0  0  0  0  0  0
  1  2  1  0
  3  1  1  0
  3  4  1  0
  3  5  2  0
  4  6  2  0
  7  4  1  0
  6  8  1  0
  9  7  2  0
  8 10  2  0
 10  9  1  0
 10 11  1  0
  2 12  2  0
 13  2  1  0
 12 14  1  0
 15 13  2  0
 14 16  2  0
 16 15  1  0
 16 17  1  0
  1 18  1  0
  6 19  1  0
  7 20  1  0
  8 21  1  0
  9 22  1  0
 11 23  1  0
 11 24  1  0
 11 25  1  0
 12 26  1  0
 13 27  1  0
 14 28  1  0
 15 29  1  0
 17 30  1  0
 17 31  1  0
 17 32  1  0
M  END
$$$$

     RDKit          3D

 29 30  0  0  0  0  0  0  0  0999 V2000
   -0.7948    1.2742    1.4251 N   0  0  0  0  0  0  0  0  0  0  0  0
   -1.8642    0.4610    1.1128 C   0  0  0  0  0  0  0  0  0  0  0  0
   -0.2260    2.0862    0.4644 C   0  0  0  0  0  0  0  0  0  0  0  0
    0.9212    1.4619   -0.2440 C   0  0  0  0  0  0  0  0  0  0  0  0
   -0.5828    3.2344    0.2291 O   0  0  0  0  0  0  0  0  0  0  0  0
    0.6645    0.7437   -1.3533 C   0  0  0  0  0  0  0  0  0  0  0  0
    2.2330    1.3845    0.3795 C   0  0  0  0  0  0  0  0  0  0  0  0
    1.5577   -0.3437   -1.7189 C   0  0  0  0  0  0  0  0  0  0  0  0
    3.0994    0.4328   -0.0134 C   0  0  0  0  0  0  0  0  0  0  0  0
    2.7336   -0.5026   -1.0763 C   0  0  0  0  0  0  0  0  0  0  0  0
    3.7080   -1.5920   -1.4012 C   0  0  0  0  0  0  0  0  0  0  0  0
   -3.0726    0.9831    0.8233 C   0  0  0  0  0  0  0  0  0  0  0  0
   -1.6704   -0.9873    0.9979 C   0  0  0  0  0  0  0  0  0  0  0  0
   -4.0615    0.1803    0.1237 C   0  0  0  0  0  0  0  0  0  0  0  0
   -2.6203   -1.7457    0.4181 C   0  0  0  0  0  0  0  0  0  0  0  0
   -0.2458   -1.7195    1.6442 Cl  0  0  0  0  0  0  0  0  0  0  0  0
   -3.8425   -1.1315   -0.0749 C   0  0  0  0  0  0  0  0  0  0  0  0
   -0.1267    0.8571    2.0648 H   0  0  0  0  0  0  0  0  0  0  0  0
   -0.1730    0.9747   -2.0036 H   0  0  0  0  0  0  0  0  0  0  0  0
    2.4904    2.1100    1.1436 H   0  0  0  0  0  0  0  0  0  0  0  0
    1.2485   -1.0038   -2.5229 H   0  0  0  0  0  0  0  0  0  0  0  0
    4.0862    0.3592    0.4328 H   0  0  0  0  0  0  0  0  0  0  0  0
    3.3455   -2.2333   -2.2118 H   0  0  0  0  0  0  0  0  0  0  0  0
    4.6677   -1.1690   -1.7167 H   0  0  0  0  0  0  0  0  0  0  0  0
    3.8793   -2.2279   -0.5261 H   0  0  0  0  0  0  0  0  0  0  0  0
   -3.3076    2.0220    1.0350 H   0  0  0  0  0  0  0  0  0  0  0  0
   -4.9660    0.6664   -0.2272 H   0  0  0  0  0  0  0  0  0  0  0  0
   -2.5154   -2.8210    0.3215 H   0  0  0  0  0  0  0  0  0  0  0  0
   -4.5655   -1.7545   -0.5912 H   0  0  0  0  0  0  0  0  0  0  0  0
  1  2  1  0
  3  1  1  0
  3  4  1  0
  3  5  2  0
  4  6  2  0
  7  4  1  0
  6  8  1  0
  9  7  2  0
  8 10  2  0
 10  9  1  0
 10 11  1  0
  2 12  2  0
 13  2  1  0
 12 14  1  0
 15 13  2  0
 13 16  1  0
 14 17  2  0
 17 15  1  0
  1 18  1  0
  6 19  1  0
  7 20  1  0
  8 21  1  0
  9 22  1  0
 11 23  1  0
 11 24  1  0
 11 25  1  0
 12 26  1  0
 14 27  1  0
 15 28  1  0
 17 29  1  0
M  END
$$$$

     RDKit          3D

 29 30  0  0  0  0  0  0  0  0999 V2000
    0.8093   -1.2388    1.6158 N   0  0  0  0  0  0  0  0  0  0  0  0
    1.8869   -1.0427    0.7788 C   0  0  0  0  0  0  0  0  0  0  0  0
    0.1801   -0.1677    2.2185 C   0  0  0  0  0  0  0  0  0  0  0  0
   -0.9824    0.3516    1.4530 C   0  0  0  0  0  0  0  0  0  0  0  0
    0.5041    0.3034    3.3018 O   0  0  0  0  0  0  0  0  0  0  0  0
   -0.7555    1.3176    0.5433 C   0  0  0  0  0  0  0  0  0  0  0  0
   -2.2541   -0.3546    1.4535 C   0  0  0  0  0  0  0  0  0  0  0  0
   -1.6072    1.3996   -0.6320 C   0  0  0  0  0  0  0  0  0  0  0  0
   -3.0909   -0.2136    0.4093 C   0  0  0  0  0  0  0  0  0  0  0  0
   -2.7355    0.6631   -0.7061 C   0  0  0  0  0  0  0  0  0  0  0  0
   -3.6671    0.7003   -1.8778 C   0  0  0  0  0  0  0  0  0  0  0  0
    3.0641   -0.5938    1.2576 C   0  0  0  0  0  0  0  0  0  0  0  0
    1.7149   -1.1727   -0.6710 C   0  0  0  0  0  0  0  0  0  0  0  0
    4.0004    0.0698    0.3643 C   0  0  0  0  0  0  0  0  0  0  0  0
    2.6223   -0.6316   -1.5057 C   0  0  0  0  0  0  0  0  0  0  0  0
    0.3718   -2.0580   -1.2989 Cl  0  0  0  0  0  0  0  0  0  0  0  0
    3.7829    0.0541   -0.9628 C   0  0  0  0  0  0  0  0  0  0  0  0
    4.8712    0.8170   -2.0549 Cl  0  0  0  0  0  0  0  0  0  0  0  0
    0.1834   -1.9856    1.3323 H   0  0  0  0  0  0  0  0  0  0  0  0
    0.0100    2.0730    0.6892 H   0  0  0  0  0  0  0  0  0  0  0  0
   -2.5058   -0.9733    2.3084 H   0  0  0  0  0  0  0  0  0  0  0  0
   -1.3099    2.0758   -1.4271 H   0  0  0  0  0  0  0  0  0  0  0  0
   -4.0482   -0.7249    0.3885 H   0  0  0  0  0  0  0  0  0  0  0  0
   -4.6632    1.0331   -1.5673 H   0  0  0  0  0  0  0  0  0  0  0  0
   -3.3151    1.3867   -2.6554 H   0  0  0  0  0  0  0  0  0  0  0  0
   -3.7574   -0.2938   -2.3288 H   0  0  0  0  0  0  0  0  0  0  0  0
    3.3037   -0.6416    2.3156 H   0  0  0  0  0  0  0  0  0  0  0  0
    4.8609    0.5650    0.8024 H   0  0  0  0  0  0  0  0  0  0  0  0
    2.5265   -0.7174   -2.5827 H   0  0  0  0  0  0  0  0  0  0  0  0
  1  2  1  0
  3  1  1  0
  3  4  1  0
  3  5  2  0
  4  6  2  0
  7  4  1  0
  6  8  1  0
  9  7  2  0
  8 10  2  0
 10  9  1  0
 10 11  1  0
  2 12  2  0
 13  2  1  0
 12 14  1  0
 15 13  2  0
 13 16  1  0
 14 17  2  0
 17 15  1  0
 17 18  1  0
  1 19  1  0
  6 20  1  0
  7 21  1  0
  8 22  1  0
  9 23  1  0
 11 24  1  0
 11 25  1  0
 11 26  1  0
 12 27  1  0
 14 28  1  0
 15 29  1  0
M  END
$$$$

     RDKit          3D

 29 30  0  0  0  0  0  0  0  0999 V2000
    0.8101   -1.0751    1.2316 N   0  0  0  0  0  0  0  0  0  0  0  0
    1.8790   -0.4019    0.7024 C   0  0  0  0  0  0  0  0  0  0  0  0
    0.0863   -1.9796    0.4874 C   0  0  0  0  0  0  0  0  0  0  0  0
   -1.1181   -1.3905   -0.1520 C   0  0  0  0  0  0  0  0  0  0  0  0
    0.3572   -3.1696    0.3868 O   0  0  0  0  0  0  0  0  0  0  0  0
   -0.9974   -0.8980   -1.3991 C   0  0  0  0  0  0  0  0  0  0  0  0
   -2.3248   -1.1283    0.6164 C   0  0  0  0  0  0  0  0  0  0  0  0
   -1.9120    0.1397   -1.8472 C   0  0  0  0  0  0  0  0  0  0  0  0
   -3.2154   -0.2252    0.1668 C   0  0  0  0  0  0  0  0  0  0  0  0
   -2.9841    0.4716   -1.0979 C   0  0  0  0  0  0  0  0  0  0  0  0
   -3.9785    1.5161   -1.5015 C   0  0  0  0  0  0  0  0  0  0  0  0
    1.7921    0.8976    0.3588 C   0  0  0  0  0  0  0  0  0  0  0  0
    3.1876   -1.0281    0.8201 C   0  0  0  0  0  0  0  0  0  0  0  0
    2.9957    1.7135    0.2915 C   0  0  0  0  0  0  0  0  0  0  0  0
    4.3047   -0.2851    0.7090 C   0  0  0  0  0  0  0  0  0  0  0  0
    4.2022    1.1423    0.4581 C   0  0  0  0  0  0  0  0  0  0  0  0
    5.6490    2.0689    0.3698 Cl  0  0  0  0  0  0  0  0  0  0  0  0
    0.3240   -0.6318    2.0008 H   0  0  0  0  0  0  0  0  0  0  0  0
   -0.2749   -1.2979   -2.1036 H   0  0  0  0  0  0  0  0  0  0  0  0
   -2.4901   -1.6839    1.5332 H   0  0  0  0  0  0  0  0  0  0  0  0
   -1.7098    0.6140   -2.8024 H   0  0  0  0  0  0  0  0  0  0  0  0
   -4.1281   -0.0211    0.7182 H   0  0  0  0  0  0  0  0  0  0  0  0
   -3.7203    1.9730   -2.4628 H   0  0  0  0  0  0  0  0  0  0  0  0
   -4.0203    2.3159   -0.7545 H   0  0  0  0  0  0  0  0  0  0  0  0
   -4.9780    1.0792   -1.5994 H   0  0  0  0  0  0  0  0  0  0  0  0
    0.8540    1.3482    0.0515 H   0  0  0  0  0  0  0  0  0  0  0  0
    3.2372   -2.0996    0.9900 H   0  0  0  0  0  0  0  0  0  0  0  0
    2.8861    2.7737    0.0911 H   0  0  0  0  0  0  0  0  0  0  0  0
    5.2867   -0.7379    0.7918 H   0  0  0  0  0  0  0  0  0  0  0  0
  1  2  1  0
  3  1  1  0
  3  4  1  0
  3  5  2  0
  4  6  2  0
  7  4  1  0
  6  8  1  0
  9  7  2  0
  8 10  2  0
 10  9  1  0
 10 11  1  0
  2 12  2  0
 13  2  1  0
 12 14  1  0
 15 13  2  0
 14 16  2  0
 16 15  1  0
 16 17  1  0
  1 18  1  0
  6 19  1  0
  7 20  1  0
  8 21  1  0
  9 22  1  0
 11 23  1  0
 11 24  1  0
 11 25  1  0
 12 26  1  0
 13 27  1  0
 14 28  1  0
 15 29  1  0
M  END
$$$$

     RDKit          3D

 30 31  0  0  0  0  0  0  0  0999 V2000
   -0.8041    1.9539   -0.2785 N   0  0  0  0  0  0  0  0  0  0  0  0
   -1.9195    1.1572   -0.4331 C   0  0  0  0  0  0  0  0  0  0  0  0
   -0.0682    1.8939    0.8884 C   0  0  0  0  0  0  0  0  0  0  0  0
    1.0780    0.9501    0.8261 C   0  0  0  0  0  0  0  0  0  0  0  0
   -0.3008    2.5614    1.8892 O   0  0  0  0  0  0  0  0  0  0  0  0
    2.2435    1.3979    0.3226 C   0  0  0  0  0  0  0  0  0  0  0  0
    0.9013   -0.4671    1.0986 C   0  0  0  0  0  0  0  0  0  0  0  0
    3.1992    0.4441   -0.2182 C   0  0  0  0  0  0  0  0  0  0  0  0
    1.8215   -1.3477    0.6651 C   0  0  0  0  0  0  0  0  0  0  0  0
    3.0048   -0.8815   -0.0564 C   0  0  0  0  0  0  0  0  0  0  0  0
    3.9535   -1.9210   -0.5678 C   0  0  0  0  0  0  0  0  0  0  0  0
   -3.0338    1.3310    0.3016 C   0  0  0  0  0  0  0  0  0  0  0  0
   -1.8682    0.0906   -1.4287 C   0  0  0  0  0  0  0  0  0  0  0  0
   -4.0997    0.3413    0.2497 C   0  0  0  0  0  0  0  0  0  0  0  0
   -2.8736   -0.8066   -1.5135 C   0  0  0  0  0  0  0  0  0  0  0  0
   -0.7493    0.0948   -2.2372 O   0  0  0  0  0  0  0  0  0  0  0  0
   -5.5492    0.5557    1.4015 Br  0  0  0  0  0  0  0  0  0  0  0  0
   -4.0193   -0.6841   -0.6206 C   0  0  0  0  0  0  0  0  0  0  0  0
   -2.8789   -2.2083   -2.7456 Br  0  0  0  0  0  0  0  0  0  0  0  0
   -0.2257    1.9645   -1.1159 H   0  0  0  0  0  0  0  0  0  0  0  0
    2.5427    2.4373    0.4137 H   0  0  0  0  0  0  0  0  0  0  0  0
    0.0252   -0.7832    1.6544 H   0  0  0  0  0  0  0  0  0  0  0  0
    4.0726    0.8373   -0.7287 H   0  0  0  0  0  0  0  0  0  0  0  0
    1.7100   -2.4095    0.8608 H   0  0  0  0  0  0  0  0  0  0  0  0
    4.3476   -2.5227    0.2581 H   0  0  0  0  0  0  0  0  0  0  0  0
    3.4482   -2.5884   -1.2739 H   0  0  0  0  0  0  0  0  0  0  0  0
    4.8064   -1.4720   -1.0880 H   0  0  0  0  0  0  0  0  0  0  0  0
   -3.1377    2.1889    0.9600 H   0  0  0  0  0  0  0  0  0  0  0  0
   -0.8212   -0.6773   -2.8290 H   0  0  0  0  0  0  0  0  0  0  0  0
   -4.8052   -1.4307   -0.6779 H   0  0  0  0  0  0  0  0  0  0  0  0
  1  2  1  0
  3  1  1  0
  3  4  1  0
  3  5  2  0
  4  6  2  0
  7  4  1  0
  6  8  1  0
  9  7  2  0
  8 10  2  0
 10  9  1  0
 10 11  1  0
  2 12  2  0
 13  2  1  0
 12 14  1  0
 15 13  2  0
 13 16  1  0
 14 17  1  0
 14 18  2  0
 18 15  1  0
 15 19  1  0
  1 20  1  0
  6 21  1  0
  7 22  1  0
  8 23  1  0
  9 24  1  0
 11 25  1  0
 11 26  1  0
 11 27  1  0
 12 28  1  0
 16 29  1  0
 18 30  1  0
M  END
$$$$

     RDKit          3D

 29 30  0  0  0  0  0  0  0  0999 V2000
   -0.6902    0.4544    1.5836 N   0  0  0  0  0  0  0  0  0  0  0  0
   -1.6845    0.5841    0.6513 C   0  0  0  0  0  0  0  0  0  0  0  0
   -0.1683   -0.7676    1.9567 C   0  0  0  0  0  0  0  0  0  0  0  0
    0.9595   -1.2153    1.0942 C   0  0  0  0  0  0  0  0  0  0  0  0
   -0.5455   -1.4069    2.9355 O   0  0  0  0  0  0  0  0  0  0  0  0
    2.1794   -0.7077    1.3550 C   0  0  0  0  0  0  0  0  0  0  0  0
    0.7091   -1.8320   -0.2011 C   0  0  0  0  0  0  0  0  0  0  0  0
    3.0712   -0.3822    0.2473 C   0  0  0  0  0  0  0  0  0  0  0  0
    1.5762   -1.6287   -1.2098 C   0  0  0  0  0  0  0  0  0  0  0  0
    2.7793   -0.8151   -0.9977 C   0  0  0  0  0  0  0  0  0  0  0  0
    3.6311   -0.5285   -2.1993 C   0  0  0  0  0  0  0  0  0  0  0  0
   -2.9496    0.1860    0.8656 C   0  0  0  0  0  0  0  0  0  0  0  0
   -1.3966    1.4523   -0.4797 C   0  0  0  0  0  0  0  0  0  0  0  0
   -4.0469    0.8672    0.1839 C   0  0  0  0  0  0  0  0  0  0  0  0
   -2.4040    2.0219   -1.1657 C   0  0  0  0  0  0  0  0  0  0  0  0
   -3.7853    1.7537   -0.7939 C   0  0  0  0  0  0  0  0  0  0  0  0
   -5.1237    2.6846   -1.6962 Br  0  0  0  0  0  0  0  0  0  0  0  0
   -0.6341    1.1828    2.3067 H   0  0  0  0  0  0  0  0  0  0  0  0
    2.5533   -0.6177    2.3707 H   0  0  0  0  0  0  0  0  0  0  0  0
   -0.1668   -2.4623   -0.3047 H   0  0  0  0  0  0  0  0  0  0  0  0
    3.9604    0.2079    0.4596 H   0  0  0  0  0  0  0  0  0  0  0  0
    1.4155   -2.0870   -2.1838 H   0  0  0  0  0  0  0  0  0  0  0  0
    4.5560   -0.0047   -1.9265 H   0  0  0  0  0  0  0  0  0  0  0  0
    3.9294   -1.4620   -2.6910 H   0  0  0  0  0  0  0  0  0  0  0  0
    3.0790    0.0870   -2.9205 H   0  0  0  0  0  0  0  0  0  0  0  0
   -3.1899   -0.5562    1.6224 H   0  0  0  0  0  0  0  0  0  0  0  0
   -0.3606    1.6487   -0.7236 H   0  0  0  0  0  0  0  0  0  0  0  0
   -5.0602    0.6431    0.4977 H   0  0  0  0  0  0  0  0  0  0  0  0
   -2.1930    2.7003   -1.9843 H   0  0  0  0  0  0  0  0  0  0  0  0
  1  2  1  0
  3  1  1  0
  3  4  1  0
  3  5  2  0
  4  6  2  0
  7  4  1  0
  6  8  1  0
  9  7  2  0
  8 10  2  0
 10  9  1  0
 10 11  1  0
  2 12  2  0
 13  2  1  0
 12 14  1  0
 15 13  2  0
 14 16  2  0
 16 15  1  0
 16 17  1  0
  1 18  1  0
  6 19  1  0
  7 20  1  0
  8 21  1  0
  9 22  1  0
 11 23  1  0
 11 24  1  0
 11 25  1  0
 12 26  1  0
 13 27  1  0
 14 28  1  0
 15 29  1  0
M  END
$$$$

     RDKit          3D

 30 31  0  0  0  0  0  0  0  0999 V2000
    0.6623   -0.3322   -1.8210 N   0  0  0  0  0  0  0  0  0  0  0  0
    1.7432    0.0523   -1.0508 C   0  0  0  0  0  0  0  0  0  0  0  0
    0.0585   -1.5520   -1.5961 C   0  0  0  0  0  0  0  0  0  0  0  0
   -1.1067   -1.4772   -0.6795 C   0  0  0  0  0  0  0  0  0  0  0  0
    0.3978   -2.5911   -2.1473 O   0  0  0  0  0  0  0  0  0  0  0  0
   -0.8657   -1.6041    0.6392 C   0  0  0  0  0  0  0  0  0  0  0  0
   -2.3626   -0.8916   -1.1249 C   0  0  0  0  0  0  0  0  0  0  0  0
   -1.6515   -0.8250    1.5822 C   0  0  0  0  0  0  0  0  0  0  0  0
   -3.1471   -0.2503   -0.2395 C   0  0  0  0  0  0  0  0  0  0  0  0
   -2.7532   -0.1662    1.1663 C   0  0  0  0  0  0  0  0  0  0  0  0
   -3.6165    0.6504    2.0775 C   0  0  0  0  0  0  0  0  0  0  0  0
    2.9570   -0.5140   -1.2072 C   0  0  0  0  0  0  0  0  0  0  0  0
    1.6420    1.3203   -0.3270 C   0  0  0  0  0  0  0  0  0  0  0  0
    4.1584    0.2145   -0.8314 C   0  0  0  0  0  0  0  0  0  0  0  0
    2.7500    1.9707    0.0650 C   0  0  0  0  0  0  0  0  0  0  0  0
    0.3855    1.8159   -0.0633 O   0  0  0  0  0  0  0  0  0  0  0  0
    4.0587    1.4074   -0.2181 C   0  0  0  0  0  0  0  0  0  0  0  0
    0.8269   -0.1899   -2.8130 H   0  0  0  0  0  0  0  0  0  0  0  0
   -0.1156   -2.2887    1.0218 H   0  0  0  0  0  0  0  0  0  0  0  0
   -2.6429   -0.9932   -2.1678 H   0  0  0  0  0  0  0  0  0  0  0  0
   -1.3249   -0.8028    2.6173 H   0  0  0  0  0  0  0  0  0  0  0  0
   -4.0901    0.1912   -0.5470 H   0  0  0  0  0  0  0  0  0  0  0  0
   -3.2386    0.6479    3.1056 H   0  0  0  0  0  0  0  0  0  0  0  0
   -4.6375    0.2545    2.0981 H   0  0  0  0  0  0  0  0  0  0  0  0
   -3.6540    1.6917    1.7403 H   0  0  0  0  0  0  0  0  0  0  0  0
    3.0688   -1.5387   -1.5489 H   0  0  0  0  0  0  0  0  0  0  0  0
    5.1230   -0.2339   -1.0450 H   0  0  0  0  0  0  0  0  0  0  0  0
    2.6877    2.9111    0.6005 H   0  0  0  0  0  0  0  0  0  0  0  0
   -0.2509    1.1554   -0.3941 H   0  0  0  0  0  0  0  0  0  0  0  0
    4.9380    1.9677    0.0811 H   0  0  0  0  0  0  0  0  0  0  0  0
  1  2  1  0
  3  1  1  0
  3  4  1  0
  3  5  2  0
  4  6  2  0
  7  4  1  0
  6  8  1  0
  9  7  2  0
  8 10  2  0
 10  9  1  0
 10 11  1  0
  2 12  2  0
 13  2  1  0
 12 14  1  0
 15 13  2  0
 13 16  1  0
 14 17  2  0
 17 15  1  0
  1 18  1  0
  6 19  1  0
  7 20  1  0
  8 21  1  0
  9 22  1  0
 11 23  1  0
 11 24  1  0
 11 25  1  0
 12 26  1  0
 14 27  1  0
 15 28  1  0
 16 29  1  0
 17 30  1  0
M  END
$$$$

     RDKit          3D

 33 34  0  0  0  0  0  0  0  0999 V2000
    0.4884   -0.2017    1.6786 N   0  0  0  0  0  0  0  0  0  0  0  0
    1.3615    0.2828    0.7237 C   0  0  0  0  0  0  0  0  0  0  0  0
   -0.5389    0.5960    2.1387 C   0  0  0  0  0  0  0  0  0  0  0  0
   -1.8122    0.4112    1.3988 C   0  0  0  0  0  0  0  0  0  0  0  0
   -0.4389    1.3442    3.1025 O   0  0  0  0  0  0  0  0  0  0  0  0
   -2.5856   -0.6333    1.7519 C   0  0  0  0  0  0  0  0  0  0  0  0
   -2.0300    1.0663    0.1183 C   0  0  0  0  0  0  0  0  0  0  0  0
   -3.3647   -1.3179    0.7323 C   0  0  0  0  0  0  0  0  0  0  0  0
   -2.8188    0.4812   -0.8013 C   0  0  0  0  0  0  0  0  0  0  0  0
   -3.4820   -0.7873   -0.5029 C   0  0  0  0  0  0  0  0  0  0  0  0
   -4.2771   -1.4232   -1.6013 C   0  0  0  0  0  0  0  0  0  0  0  0
    2.2833    1.2202    1.0190 C   0  0  0  0  0  0  0  0  0  0  0  0
    1.4983   -0.4773   -0.5172 C   0  0  0  0  0  0  0  0  0  0  0  0
    3.4815    1.3526    0.2048 C   0  0  0  0  0  0  0  0  0  0  0  0
    2.5832   -0.3247   -1.2945 C   0  0  0  0  0  0  0  0  0  0  0  0
    0.4862   -1.3463   -0.8570 O   0  0  0  0  0  0  0  0  0  0  0  0
    3.6341    0.6153   -0.9142 C   0  0  0  0  0  0  0  0  0  0  0  0
    4.8312    0.7078   -1.8081 C   0  0  0  0  0  0  0  0  0  0  0  0
    0.9730   -0.6453    2.4530 H   0  0  0  0  0  0  0  0  0  0  0  0
   -2.7218   -0.9171    2.7904 H   0  0  0  0  0  0  0  0  0  0  0  0
   -1.5384    2.0147   -0.0715 H   0  0  0  0  0  0  0  0  0  0  0  0
   -3.8572   -2.2454    1.0068 H   0  0  0  0  0  0  0  0  0  0  0  0
   -2.9855    0.9467   -1.7678 H   0  0  0  0  0  0  0  0  0  0  0  0
   -4.7305   -2.3673   -1.2803 H   0  0  0  0  0  0  0  0  0  0  0  0
   -5.0858   -0.7591   -1.9249 H   0  0  0  0  0  0  0  0  0  0  0  0
   -3.6369   -1.6394   -2.4632 H   0  0  0  0  0  0  0  0  0  0  0  0
    2.1368    1.9303    1.8272 H   0  0  0  0  0  0  0  0  0  0  0  0
    4.2307    2.0704    0.5238 H   0  0  0  0  0  0  0  0  0  0  0  0
    2.6850   -0.8915   -2.2137 H   0  0  0  0  0  0  0  0  0  0  0  0
   -0.2013   -1.2555   -0.1716 H   0  0  0  0  0  0  0  0  0  0  0  0
    5.5547    1.4446   -1.4429 H   0  0  0  0  0  0  0  0  0  0  0  0
    5.3426   -0.2589   -1.8670 H   0  0  0  0  0  0  0  0  0  0  0  0
    4.5350    1.0067   -2.8193 H   0  0  0  0  0  0  0  0  0  0  0  0
  1  2  1  0
  3  1  1  0
  3  4  1  0
  3  5  2  0
  4  6  2  0
  7  4  1  0
  6  8  1  0
  9  7  2  0
  8 10  2  0
 10  9  1  0
 10 11  1  0
  2 12  2  0
 13  2  1  0
 12 14  1  0
 15 13  2  0
 13 16  1  0
 14 17  2  0
 17 15  1  0
 17 18  1  0
  1 19  1  0
  6 20  1  0
  7 21  1  0
  8 22  1  0
  9 23  1  0
 11 24  1  0
 11 25  1  0
 11 26  1  0
 12 27  1  0
 14 28  1  0
 15 29  1  0
 16 30  1  0
 18 31  1  0
 18 32  1  0
 18 33  1  0
M  END
$$$$

     RDKit          3D

 29 30  0  0  0  0  0  0  0  0999 V2000
    0.9401    1.5864   -0.5660 N   0  0  0  0  0  0  0  0  0  0  0  0
    2.0699    0.8034   -0.4787 C   0  0  0  0  0  0  0  0  0  0  0  0
    0.1698    1.8122    0.5575 C   0  0  0  0  0  0  0  0  0  0  0  0
   -1.0913    1.0276    0.5784 C   0  0  0  0  0  0  0  0  0  0  0  0
    0.4479    2.6102    1.4445 O   0  0  0  0  0  0  0  0  0  0  0  0
   -1.0601   -0.2206    1.0814 C   0  0  0  0  0  0  0  0  0  0  0  0
   -2.2726    1.4948   -0.1297 C   0  0  0  0  0  0  0  0  0  0  0  0
   -2.0624   -1.1848    0.6575 C   0  0  0  0  0  0  0  0  0  0  0  0
   -3.2416    0.6201   -0.4559 C   0  0  0  0  0  0  0  0  0  0  0  0
   -3.1178   -0.7887   -0.0842 C   0  0  0  0  0  0  0  0  0  0  0  0
   -4.1945   -1.7209   -0.5467 C   0  0  0  0  0  0  0  0  0  0  0  0
    3.2214    1.2763    0.0365 C   0  0  0  0  0  0  0  0  0  0  0  0
    2.0571   -0.5164   -1.0953 C   0  0  0  0  0  0  0  0  0  0  0  0
    4.4216    0.4532    0.0202 C   0  0  0  0  0  0  0  0  0  0  0  0
    3.1650   -1.2746   -1.1240 C   0  0  0  0  0  0  0  0  0  0  0  0
    0.9127   -0.9594   -1.6563 F   0  0  0  0  0  0  0  0  0  0  0  0
    4.3946   -0.7727   -0.5340 C   0  0  0  0  0  0  0  0  0  0  0  0
    0.4049    1.4481   -1.4173 H   0  0  0  0  0  0  0  0  0  0  0  0
   -0.3352   -0.5176    1.8323 H   0  0  0  0  0  0  0  0  0  0  0  0
   -2.3535    2.5503   -0.3671 H   0  0  0  0  0  0  0  0  0  0  0  0
   -1.9344   -2.2167    0.9686 H   0  0  0  0  0  0  0  0  0  0  0  0
   -4.1357    0.9483   -0.9766 H   0  0  0  0  0  0  0  0  0  0  0  0
   -5.1677   -1.4123   -0.1503 H   0  0  0  0  0  0  0  0  0  0  0  0
   -4.0119   -2.7489   -0.2155 H   0  0  0  0  0  0  0  0  0  0  0  0
   -4.2517   -1.7299   -1.6404 H   0  0  0  0  0  0  0  0  0  0  0  0
    3.2640    2.2382    0.5390 H   0  0  0  0  0  0  0  0  0  0  0  0
    5.3241    0.8528    0.4713 H   0  0  0  0  0  0  0  0  0  0  0  0
    3.1610   -2.2541   -1.5863 H   0  0  0  0  0  0  0  0  0  0  0  0
    5.2763   -1.4046   -0.5542 H   0  0  0  0  0  0  0  0  0  0  0  0
  1  2  1  0
  3  1  1  0
  3  4  1  0
  3  5  2  0
  4  6  2  0
  7  4  1  0
  6  8  1  0
  9  7  2  0
  8 10  2  0
 10  9  1  0
 10 11  1  0
  2 12  2  0
 13  2  1  0
 12 14  1  0
 15 13  2  0
 13 16  1  0
 14 17  2  0
 17 15  1  0
  1 18  1  0
  6 19  1  0
  7 20  1  0
  8 21  1  0
  9 22  1  0
 11 23  1  0
 11 24  1  0
 11 25  1  0
 12 26  1  0
 14 27  1  0
 15 28  1  0
 17 29  1  0
M  END
$$$$

     RDKit          3D

 29 30  0  0  0  0  0  0  0  0999 V2000
    0.7428    1.7103   -0.2093 N   0  0  0  0  0  0  0  0  0  0  0  0
    1.8639    0.9540   -0.0211 C   0  0  0  0  0  0  0  0  0  0  0  0
    0.0119    1.7009   -1.3708 C   0  0  0  0  0  0  0  0  0  0  0  0
   -1.1184    0.7388   -1.3435 C   0  0  0  0  0  0  0  0  0  0  0  0
    0.2232    2.4327   -2.3281 O   0  0  0  0  0  0  0  0  0  0  0  0
   -2.2698    1.1286   -0.7619 C   0  0  0  0  0  0  0  0  0  0  0  0
   -0.9247   -0.6551   -1.7159 C   0  0  0  0  0  0  0  0  0  0  0  0
   -3.1873    0.1200   -0.2522 C   0  0  0  0  0  0  0  0  0  0  0  0
   -1.8121   -1.5819   -1.3062 C   0  0  0  0  0  0  0  0  0  0  0  0
   -2.9791   -1.1878   -0.5154 C   0  0  0  0  0  0  0  0  0  0  0  0
   -3.8950   -2.2782   -0.0517 C   0  0  0  0  0  0  0  0  0  0  0  0
    3.0672    1.3623   -0.4702 C   0  0  0  0  0  0  0  0  0  0  0  0
    1.7948   -0.0769    1.0069 C   0  0  0  0  0  0  0  0  0  0  0  0
    4.2763    0.9714    0.2378 C   0  0  0  0  0  0  0  0  0  0  0  0
    2.9175   -0.4827    1.6274 C   0  0  0  0  0  0  0  0  0  0  0  0
    4.1928    0.0877    1.2451 C   0  0  0  0  0  0  0  0  0  0  0  0
    5.2949   -0.3050    1.9119 F   0  0  0  0  0  0  0  0  0  0  0  0
    0.4564    2.3494    0.5257 H   0  0  0  0  0  0  0  0  0  0  0  0
   -2.5916    2.1655   -0.7666 H   0  0  0  0  0  0  0  0  0  0  0  0
   -0.0631   -0.9124   -2.3238 H   0  0  0  0  0  0  0  0  0  0  0  0
   -4.0491    0.4627    0.3140 H   0  0  0  0  0  0  0  0  0  0  0  0
   -1.6823   -2.6246   -1.5801 H   0  0  0  0  0  0  0  0  0  0  0  0
   -4.2822   -2.8431   -0.9058 H   0  0  0  0  0  0  0  0  0  0  0  0
   -3.3628   -2.9702    0.6104 H   0  0  0  0  0  0  0  0  0  0  0  0
   -4.7531   -1.8813    0.5015 H   0  0  0  0  0  0  0  0  0  0  0  0
    3.1629    1.9773   -1.3603 H   0  0  0  0  0  0  0  0  0  0  0  0
    0.8298   -0.5081    1.2525 H   0  0  0  0  0  0  0  0  0  0  0  0
    5.2282    1.3895   -0.0648 H   0  0  0  0  0  0  0  0  0  0  0  0
    2.9080   -1.2436    2.3986 H   0  0  0  0  0  0  0  0  0  0  0  0
  1  2  1  0
  3  1  1  0
  3  4  1  0
  3  5  2  0
  4  6  2  0
  7  4  1  0
  6  8  1  0
  9  7  2  0
  8 10  2  0
 10  9  1  0
 10 11  1  0
  2 12  2  0
 13  2  1  0
 12 14  1  0
 15 13  2  0
 14 16  2  0
 16 15  1  0
 16 17  1  0
  1 18  1  0
  6 19  1  0
  7 20  1  0
  8 21  1  0
  9 22  1  0
 11 23  1  0
 11 24  1  0
 11 25  1  0
 12 26  1  0
 13 27  1  0
 14 28  1  0
 15 29  1  0
M  END
$$$$

     RDKit          3D

 29 30  0  0  0  0  0  0  0  0999 V2000
   -0.9132   -1.6812   -0.2013 N   0  0  0  0  0  0  0  0  0  0  0  0
   -1.9073   -0.8306    0.2031 C   0  0  0  0  0  0  0  0  0  0  0  0
   -0.3112   -1.5669   -1.4329 C   0  0  0  0  0  0  0  0  0  0  0  0
    0.9040   -0.7132   -1.4227 C   0  0  0  0  0  0  0  0  0  0  0  0
   -0.6913   -2.1395   -2.4468 O   0  0  0  0  0  0  0  0  0  0  0  0
    2.0760   -1.2749   -1.0708 C   0  0  0  0  0  0  0  0  0  0  0  0
    0.8135    0.7267   -1.6015 C   0  0  0  0  0  0  0  0  0  0  0  0
    3.1563   -0.4276   -0.5901 C   0  0  0  0  0  0  0  0  0  0  0  0
    1.8415    1.5097   -1.2275 C   0  0  0  0  0  0  0  0  0  0  0  0
    3.0529    0.9159   -0.6640 C   0  0  0  0  0  0  0  0  0  0  0  0
    4.1302    1.8512   -0.2091 C   0  0  0  0  0  0  0  0  0  0  0  0
   -1.6818    0.1261    1.1238 C   0  0  0  0  0  0  0  0  0  0  0  0
   -3.2758   -1.1921   -0.1348 C   0  0  0  0  0  0  0  0  0  0  0  0
   -2.7862    0.6536    1.9094 C   0  0  0  0  0  0  0  0  0  0  0  0
   -4.3031   -0.6654    0.5561 C   0  0  0  0  0  0  0  0  0  0  0  0
   -4.0469    0.2740    1.6342 C   0  0  0  0  0  0  0  0  0  0  0  0
   -0.3873   -2.1538    0.5221 H   0  0  0  0  0  0  0  0  0  0  0  0
    2.2865   -2.3224   -1.2627 H   0  0  0  0  0  0  0  0  0  0  0  0
   -0.0900    1.1394   -2.0382 H   0  0  0  0  0  0  0  0  0  0  0  0
    4.0453   -0.9131   -0.2002 H   0  0  0  0  0  0  0  0  0  0  0  0
    1.7935    2.5865   -1.3552 H   0  0  0  0  0  0  0  0  0  0  0  0
    4.9907    1.3118    0.2008 H   0  0  0  0  0  0  0  0  0  0  0  0
    3.7543    2.5188    0.5736 H   0  0  0  0  0  0  0  0  0  0  0  0
    4.4879    2.4622   -1.0447 H   0  0  0  0  0  0  0  0  0  0  0  0
   -0.7059    0.5837    1.2469 H   0  0  0  0  0  0  0  0  0  0  0  0
   -3.4427   -1.8830   -0.9552 H   0  0  0  0  0  0  0  0  0  0  0  0
   -2.5681    1.3636    2.6997 H   0  0  0  0  0  0  0  0  0  0  0  0
   -5.3307   -0.9186    0.3195 H   0  0  0  0  0  0  0  0  0  0  0  0
   -4.8910    0.6591    2.1963 H   0  0  0  0  0  0  0  0  0  0  0  0
  1  2  1  0
  3  1  1  0
  3  4  1  0
  3  5  2  0
  4  6  2  0
  7  4  1  0
  6  8  1  0
  9  7  2  0
  8 10  2  0
 10  9  1  0
 10 11  1  0
  2 12  2  0
 13  2  1  0
 12 14  1  0
 15 13  2  0
 14 16  2  0
 16 15  1  0
  1 17  1  0
  6 18  1  0
  7 19  1  0
  8 20  1  0
  9 21  1  0
 11 22  1  0
 11 23  1  0
 11 24  1  0
 12 25  1  0
 13 26  1  0
 14 27  1  0
 15 28  1  0
 16 29  1  0
M  END
$$$$

     RDKit          3D

 29 30  0  0  0  0  0  0  0  0999 V2000
    0.8909    1.5567   -0.2465 N   0  0  0  0  0  0  0  0  0  0  0  0
    2.0585    0.8278   -0.2688 C   0  0  0  0  0  0  0  0  0  0  0  0
    0.1800    1.6876    0.9303 C   0  0  0  0  0  0  0  0  0  0  0  0
   -1.0729    0.8907    0.9564 C   0  0  0  0  0  0  0  0  0  0  0  0
    0.5070    2.4081    1.8656 O   0  0  0  0  0  0  0  0  0  0  0  0
   -2.1916    1.4644    0.4746 C   0  0  0  0  0  0  0  0  0  0  0  0
   -1.0554   -0.5329    1.2494 C   0  0  0  0  0  0  0  0  0  0  0  0
   -3.2653    0.6217   -0.0275 C   0  0  0  0  0  0  0  0  0  0  0  0
   -2.0827   -1.3058    0.8525 C   0  0  0  0  0  0  0  0  0  0  0  0
   -3.2220   -0.7151    0.1519 C   0  0  0  0  0  0  0  0  0  0  0  0
   -4.2974   -1.6444   -0.3197 C   0  0  0  0  0  0  0  0  0  0  0  0
    3.2160    1.3329    0.2035 C   0  0  0  0  0  0  0  0  0  0  0  0
    2.0714   -0.4534   -0.9660 C   0  0  0  0  0  0  0  0  0  0  0  0
    4.4547    0.5842    0.0470 C   0  0  0  0  0  0  0  0  0  0  0  0
    3.2122   -1.1441   -1.1195 C   0  0  0  0  0  0  0  0  0  0  0  0
    0.9142   -0.9273   -1.4723 F   0  0  0  0  0  0  0  0  0  0  0  0
    4.4413   -0.6008   -0.5844 C   0  0  0  0  0  0  0  0  0  0  0  0
    5.5745   -1.3124   -0.7382 F   0  0  0  0  0  0  0  0  0  0  0  0
    0.3121    1.4475   -1.0737 H   0  0  0  0  0  0  0  0  0  0  0  0
   -2.3681    2.5320    0.5629 H   0  0  0  0  0  0  0  0  0  0  0  0
   -0.2077   -0.9434    1.7874 H   0  0  0  0  0  0  0  0  0  0  0  0
   -4.1006    1.1066   -0.5228 H   0  0  0  0  0  0  0  0  0  0  0  0
   -2.0891   -2.3713    1.0604 H   0  0  0  0  0  0  0  0  0  0  0  0
   -3.8908   -2.3757   -1.0264 H   0  0  0  0  0  0  0  0  0  0  0  0
   -5.1056   -1.1066   -0.8269 H   0  0  0  0  0  0  0  0  0  0  0  0
   -4.7374   -2.1849    0.5252 H   0  0  0  0  0  0  0  0  0  0  0  0
    3.2411    2.2568    0.7744 H   0  0  0  0  0  0  0  0  0  0  0  0
    5.3723    0.9938    0.4530 H   0  0  0  0  0  0  0  0  0  0  0  0
    3.2403   -2.0928   -1.6385 H   0  0  0  0  0  0  0  0  0  0  0  0
  1  2  1  0
  3  1  1  0
  3  4  1  0
  3  5  2  0
  4  6  2  0
  7  4  1  0
  6  8  1  0
  9  7  2  0
  8 10  2  0
 10  9  1  0
 10 11  1  0
  2 12  2  0
 13  2  1  0
 12 14  1  0
 15 13  2  0
 13 16  1  0
 14 17  2  0
 17 15  1  0
 17 18  1  0
  1 19  1  0
  6 20  1  0
  7 21  1  0
  8 22  1  0
  9 23  1  0
 11 24  1  0
 11 25  1  0
 11 26  1  0
 12 27  1  0
 14 28  1  0
 15 29  1  0
M  END
$$$$

     RDKit          3D

 32 33  0  0  0  0  0  0  0  0999 V2000
   -1.8794   -1.7304   -1.0949 C   0  0  0  0  0  0  0  0  0  0  0  0
   -1.9859   -0.6527   -0.0762 C   0  0  0  0  0  0  0  0  0  0  0  0
   -0.6729   -2.3765   -1.1076 N   0  0  0  0  0  0  0  0  0  0  0  0
   -2.8389   -2.1110   -1.7569 O   0  0  0  0  0  0  0  0  0  0  0  0
    0.3213   -1.8387   -1.8777 C   0  0  0  0  0  0  0  0  0  0  0  0
    1.2159   -0.8964   -1.1556 C   0  0  0  0  0  0  0  0  0  0  0  0
    0.5438   -2.1991   -3.0266 O   0  0  0  0  0  0  0  0  0  0  0  0
    2.0087   -1.3723   -0.1749 C   0  0  0  0  0  0  0  0  0  0  0  0
    1.3841    0.4729   -1.6195 C   0  0  0  0  0  0  0  0  0  0  0  0
    2.8831   -0.4632    0.5513 C   0  0  0  0  0  0  0  0  0  0  0  0
    2.2361    1.2989   -0.9842 C   0  0  0  0  0  0  0  0  0  0  0  0
    2.9986    0.8259    0.1693 C   0  0  0  0  0  0  0  0  0  0  0  0
    3.8938    1.8122    0.8575 C   0  0  0  0  0  0  0  0  0  0  0  0
   -2.2425   -1.0558    1.1864 C   0  0  0  0  0  0  0  0  0  0  0  0
   -2.2803    0.7191   -0.4650 C   0  0  0  0  0  0  0  0  0  0  0  0
   -3.0246   -0.2090    2.0837 C   0  0  0  0  0  0  0  0  0  0  0  0
   -2.9388    1.5328    0.3819 C   0  0  0  0  0  0  0  0  0  0  0  0
   -1.8391    1.1077   -1.7056 O   0  0  0  0  0  0  0  0  0  0  0  0
   -3.5853   -0.9119    3.9404 I   0  0  0  0  0  0  0  0  0  0  0  0
   -3.3466    1.0395    1.6890 C   0  0  0  0  0  0  0  0  0  0  0  0
   -0.8489   -3.3086   -1.4643 H   0  0  0  0  0  0  0  0  0  0  0  0
    2.0805   -2.4343    0.0486 H   0  0  0  0  0  0  0  0  0  0  0  0
    0.8241    0.7952   -2.4925 H   0  0  0  0  0  0  0  0  0  0  0  0
    3.4440   -0.8621    1.3905 H   0  0  0  0  0  0  0  0  0  0  0  0
    2.3870    2.3166   -1.3317 H   0  0  0  0  0  0  0  0  0  0  0  0
    4.6060    2.2490    0.1489 H   0  0  0  0  0  0  0  0  0  0  0  0
    3.3029    2.6217    1.2990 H   0  0  0  0  0  0  0  0  0  0  0  0
    4.4723    1.3451    1.6604 H   0  0  0  0  0  0  0  0  0  0  0  0
   -1.8466   -1.9906    1.5699 H   0  0  0  0  0  0  0  0  0  0  0  0
   -3.1795    2.5604    0.1334 H   0  0  0  0  0  0  0  0  0  0  0  0
   -2.1706    2.0039   -1.8831 H   0  0  0  0  0  0  0  0  0  0  0  0
   -3.9222    1.7118    2.3185 H   0  0  0  0  0  0  0  0  0  0  0  0
  1  2  1  0
  1  3  1  0
  1  4  2  0
  5  3  1  0
  5  6  1  0
  5  7  2  0
  6  8  2  0
  9  6  1  0
  8 10  1  0
 11  9  2  0
 10 12  2  0
 12 11  1  0
 12 13  1  0
  2 14  2  0
 15  2  1  0
 14 16  1  0
 17 15  2  0
 15 18  1  0
 16 19  1  0
 16 20  2  0
 20 17  1  0
  3 21  1  0
  8 22  1  0
  9 23  1  0
 10 24  1  0
 11 25  1  0
 13 26  1  0
 13 27  1  0
 13 28  1  0
 14 29  1  0
 17 30  1  0
 18 31  1  0
 20 32  1  0
M  END
$$$$

     RDKit          3D

 31 32  0  0  0  0  0  0  0  0999 V2000
   -1.3721   -0.0866    0.4831 C   0  0  0  0  0  0  0  0  0  0  0  0
   -2.8058    0.1654    0.1919 C   0  0  0  0  0  0  0  0  0  0  0  0
   -0.5240    0.6296   -0.3105 N   0  0  0  0  0  0  0  0  0  0  0  0
   -0.9931   -0.8127    1.3941 O   0  0  0  0  0  0  0  0  0  0  0  0
    0.0664   -0.0963   -1.3101 C   0  0  0  0  0  0  0  0  0  0  0  0
    1.5289   -0.2914   -1.1290 C   0  0  0  0  0  0  0  0  0  0  0  0
   -0.5198   -0.5238   -2.2980 O   0  0  0  0  0  0  0  0  0  0  0  0
    2.3452    0.5885   -1.7396 C   0  0  0  0  0  0  0  0  0  0  0  0
    2.0494   -1.1569   -0.0825 C   0  0  0  0  0  0  0  0  0  0  0  0
    3.6507    0.8706   -1.1645 C   0  0  0  0  0  0  0  0  0  0  0  0
    3.2854   -0.9435    0.4043 C   0  0  0  0  0  0  0  0  0  0  0  0
    4.1133    0.1352   -0.1321 C   0  0  0  0  0  0  0  0  0  0  0  0
    5.4542    0.3525    0.4985 C   0  0  0  0  0  0  0  0  0  0  0  0
   -3.4292   -0.7778   -0.5445 C   0  0  0  0  0  0  0  0  0  0  0  0
   -3.5974    1.0635    1.0316 C   0  0  0  0  0  0  0  0  0  0  0  0
   -4.8051   -1.1317   -0.2404 C   0  0  0  0  0  0  0  0  0  0  0  0
   -4.9003    0.7849    1.2412 C   0  0  0  0  0  0  0  0  0  0  0  0
   -2.8014    2.5995    1.7347 Br  0  0  0  0  0  0  0  0  0  0  0  0
   -5.5117   -0.3811    0.6227 C   0  0  0  0  0  0  0  0  0  0  0  0
    0.1527    1.1065    0.2721 H   0  0  0  0  0  0  0  0  0  0  0  0
    2.1089    1.0023   -2.7154 H   0  0  0  0  0  0  0  0  0  0  0  0
    1.4220   -1.9596    0.2934 H   0  0  0  0  0  0  0  0  0  0  0  0
    4.2390    1.6673   -1.6092 H   0  0  0  0  0  0  0  0  0  0  0  0
    3.6891   -1.5761    1.1891 H   0  0  0  0  0  0  0  0  0  0  0  0
    6.0725   -0.5471    0.4089 H   0  0  0  0  0  0  0  0  0  0  0  0
    5.9972    1.1772    0.0245 H   0  0  0  0  0  0  0  0  0  0  0  0
    5.3446    0.5946    1.5610 H   0  0  0  0  0  0  0  0  0  0  0  0
   -2.9456   -1.2623   -1.3879 H   0  0  0  0  0  0  0  0  0  0  0  0
   -5.2379   -1.9987   -0.7287 H   0  0  0  0  0  0  0  0  0  0  0  0
   -5.5334    1.4241    1.8480 H   0  0  0  0  0  0  0  0  0  0  0  0
   -6.5429   -0.6162    0.8651 H   0  0  0  0  0  0  0  0  0  0  0  0
  1  2  1  0
  1  3  1  0
  1  4  2  0
  5  3  1  0
  5  6  1  0
  5  7  2  0
  6  8  2  0
  9  6  1  0
  8 10  1  0
 11  9  2  0
 10 12  2  0
 12 11  1  0
 12 13  1  0
  2 14  2  0
 15  2  1  0
 14 16  1  0
 17 15  2  0
 15 18  1  0
 16 19  2  0
 19 17  1  0
  3 20  1  0
  8 21  1  0
  9 22  1  0
 10 23  1  0
 11 24  1  0
 13 25  1  0
 13 26  1  0
 13 27  1  0
 14 28  1  0
 16 29  1  0
 17 30  1  0
 19 31  1  0
M  END
$$$$

     RDKit          3D

 34 35  0  0  0  0  0  0  0  0999 V2000
    0.5645   -0.4881   -1.1637 C   0  0  0  0  0  0  0  0  0  0  0  0
    2.0493   -0.4992   -1.2431 C   0  0  0  0  0  0  0  0  0  0  0  0
    0.0694    0.3415   -0.1924 N   0  0  0  0  0  0  0  0  0  0  0  0
   -0.1211   -1.1411   -1.9417 O   0  0  0  0  0  0  0  0  0  0  0  0
   -0.5222   -0.3051    0.8528 C   0  0  0  0  0  0  0  0  0  0  0  0
   -2.0019   -0.2006    0.8571 C   0  0  0  0  0  0  0  0  0  0  0  0
    0.1045   -0.8378    1.7609 O   0  0  0  0  0  0  0  0  0  0  0  0
   -2.7241   -1.1057    0.1699 C   0  0  0  0  0  0  0  0  0  0  0  0
   -2.6729    0.8224    1.6447 C   0  0  0  0  0  0  0  0  0  0  0  0
   -4.1734   -0.9919    0.1293 C   0  0  0  0  0  0  0  0  0  0  0  0
   -4.0156    0.9077    1.6282 C   0  0  0  0  0  0  0  0  0  0  0  0
   -4.8045   -0.0250    0.8267 C   0  0  0  0  0  0  0  0  0  0  0  0
   -6.2917    0.1484    0.8305 C   0  0  0  0  0  0  0  0  0  0  0  0
    2.6236    0.3389   -2.1269 C   0  0  0  0  0  0  0  0  0  0  0  0
    2.8551   -1.1193   -0.2033 C   0  0  0  0  0  0  0  0  0  0  0  0
    3.9651    0.8385   -1.8707 C   0  0  0  0  0  0  0  0  0  0  0  0
    4.1213   -0.7085   -0.0084 C   0  0  0  0  0  0  0  0  0  0  0  0
    4.6956    0.3373   -0.8530 C   0  0  0  0  0  0  0  0  0  0  0  0
    6.0903    0.7852   -0.5413 C   0  0  0  0  0  0  0  0  0  0  0  0
    0.7726    0.9756    0.1636 H   0  0  0  0  0  0  0  0  0  0  0  0
   -2.2585   -1.9030   -0.4021 H   0  0  0  0  0  0  0  0  0  0  0  0
   -2.0728    1.4950    2.2476 H   0  0  0  0  0  0  0  0  0  0  0  0
   -4.7164   -1.7076   -0.4800 H   0  0  0  0  0  0  0  0  0  0  0  0
   -4.5325    1.6596    2.2160 H   0  0  0  0  0  0  0  0  0  0  0  0
   -6.5646    1.1382    0.4494 H   0  0  0  0  0  0  0  0  0  0  0  0
   -6.6886    0.0455    1.8461 H   0  0  0  0  0  0  0  0  0  0  0  0
   -6.7897   -0.5980    0.2024 H   0  0  0  0  0  0  0  0  0  0  0  0
    2.1660    0.5532   -3.0882 H   0  0  0  0  0  0  0  0  0  0  0  0
    2.4122   -1.9032    0.4041 H   0  0  0  0  0  0  0  0  0  0  0  0
    4.3583    1.5996   -2.5376 H   0  0  0  0  0  0  0  0  0  0  0  0
    4.7366   -1.1570    0.7657 H   0  0  0  0  0  0  0  0  0  0  0  0
    6.1453    1.1930    0.4737 H   0  0  0  0  0  0  0  0  0  0  0  0
    6.4303    1.5650   -1.2312 H   0  0  0  0  0  0  0  0  0  0  0  0
    6.7904   -0.0537   -0.6173 H   0  0  0  0  0  0  0  0  0  0  0  0
  1  2  1  0
  1  3  1  0
  1  4  2  0
  5  3  1  0
  5  6  1  0
  5  7  2  0
  6  8  2  0
  9  6  1  0
  8 10  1  0
 11  9  2  0
 10 12  2  0
 12 11  1  0
 12 13  1  0
  2 14  2  0
 15  2  1  0
 14 16  1  0
 17 15  2  0
 16 18  2  0
 18 17  1  0
 18 19  1  0
  3 20  1  0
  8 21  1  0
  9 22  1  0
 10 23  1  0
 11 24  1  0
 13 25  1  0
 13 26  1  0
 13 27  1  0
 14 28  1  0
 15 29  1  0
 16 30  1  0
 17 31  1  0
 19 32  1  0
 19 33  1  0
 19 34  1  0
M  END
$$$$

     RDKit          3D

 31 32  0  0  0  0  0  0  0  0999 V2000
   -1.2231    1.9686    0.8754 C   0  0  0  0  0  0  0  0  0  0  0  0
   -1.9752    1.0562   -0.0194 C   0  0  0  0  0  0  0  0  0  0  0  0
   -0.9168    1.4016    2.0850 N   0  0  0  0  0  0  0  0  0  0  0  0
   -0.9528    3.1180    0.5527 O   0  0  0  0  0  0  0  0  0  0  0  0
    0.3980    1.3835    2.4589 C   0  0  0  0  0  0  0  0  0  0  0  0
    1.3046    0.5859    1.5953 C   0  0  0  0  0  0  0  0  0  0  0  0
    0.7928    1.9357    3.4801 O   0  0  0  0  0  0  0  0  0  0  0  0
    1.2675   -0.7572    1.6784 C   0  0  0  0  0  0  0  0  0  0  0  0
    2.1023    1.2285    0.5627 C   0  0  0  0  0  0  0  0  0  0  0  0
    1.7979   -1.5560    0.5845 C   0  0  0  0  0  0  0  0  0  0  0  0
    2.6519    0.4843   -0.4142 C   0  0  0  0  0  0  0  0  0  0  0  0
    2.4652   -0.9661   -0.4291 C   0  0  0  0  0  0  0  0  0  0  0  0
    3.0536   -1.7216   -1.5803 C   0  0  0  0  0  0  0  0  0  0  0  0
   -1.2766    0.4434   -0.9964 C   0  0  0  0  0  0  0  0  0  0  0  0
   -3.3330    0.6193    0.2785 C   0  0  0  0  0  0  0  0  0  0  0  0
   -1.7333   -0.8404   -1.5033 C   0  0  0  0  0  0  0  0  0  0  0  0
   -3.7957   -0.5231   -0.2655 C   0  0  0  0  0  0  0  0  0  0  0  0
   -4.3420    1.5753    1.2982 Cl  0  0  0  0  0  0  0  0  0  0  0  0
   -2.9465   -1.3040   -1.1533 C   0  0  0  0  0  0  0  0  0  0  0  0
   -1.4212    1.8945    2.8116 H   0  0  0  0  0  0  0  0  0  0  0  0
    0.9261   -1.2677    2.5733 H   0  0  0  0  0  0  0  0  0  0  0  0
    2.2346    2.3062    0.6036 H   0  0  0  0  0  0  0  0  0  0  0  0
    1.6539   -2.6319    0.6269 H   0  0  0  0  0  0  0  0  0  0  0  0
    3.2494    0.9468   -1.1932 H   0  0  0  0  0  0  0  0  0  0  0  0
    2.6180   -1.3818   -2.5253 H   0  0  0  0  0  0  0  0  0  0  0  0
    2.8693   -2.7981   -1.4990 H   0  0  0  0  0  0  0  0  0  0  0  0
    4.1377   -1.5712   -1.6219 H   0  0  0  0  0  0  0  0  0  0  0  0
   -0.4051    0.9018   -1.4536 H   0  0  0  0  0  0  0  0  0  0  0  0
   -1.0806   -1.3944   -2.1708 H   0  0  0  0  0  0  0  0  0  0  0  0
   -4.8017   -0.8827   -0.0760 H   0  0  0  0  0  0  0  0  0  0  0  0
   -3.3190   -2.2531   -1.5239 H   0  0  0  0  0  0  0  0  0  0  0  0
  1  2  1  0
  1  3  1  0
  1  4  2  0
  5  3  1  0
  5  6  1  0
  5  7  2  0
  6  8  2  0
  9  6  1  0
  8 10  1  0
 11  9  2  0
 10 12  2  0
 12 11  1  0
 12 13  1  0
  2 14  2  0
 15  2  1  0
 14 16  1  0
 17 15  2  0
 15 18  1  0
 16 19  2  0
 19 17  1  0
  3 20  1  0
  8 21  1  0
  9 22  1  0
 10 23  1  0
 11 24  1  0
 13 25  1  0
 13 26  1  0
 13 27  1  0
 14 28  1  0
 16 29  1  0
 17 30  1  0
 19 31  1  0
M  END
$$$$

     RDKit          3D

 31 32  0  0  0  0  0  0  0  0999 V2000
    0.5931    0.4896   -2.5136 C   0  0  0  0  0  0  0  0  0  0  0  0
    1.6324   -0.0757   -1.6160 C   0  0  0  0  0  0  0  0  0  0  0  0
    0.0880    1.6872   -2.0827 N   0  0  0  0  0  0  0  0  0  0  0  0
    0.2728   -0.0621   -3.5577 O   0  0  0  0  0  0  0  0  0  0  0  0
   -1.2371    1.7193   -1.7460 C   0  0  0  0  0  0  0  0  0  0  0  0
   -1.5999    0.9822   -0.5098 C   0  0  0  0  0  0  0  0  0  0  0  0
   -2.0610    2.3751   -2.3729 O   0  0  0  0  0  0  0  0  0  0  0  0
   -1.2410    1.4922    0.6837 C   0  0  0  0  0  0  0  0  0  0  0  0
   -2.2352   -0.3239   -0.5809 C   0  0  0  0  0  0  0  0  0  0  0  0
   -1.2306    0.6289    1.8546 C   0  0  0  0  0  0  0  0  0  0  0  0
   -2.2926   -1.0969    0.5192 C   0  0  0  0  0  0  0  0  0  0  0  0
   -1.7388   -0.6196    1.7853 C   0  0  0  0  0  0  0  0  0  0  0  0
   -1.7817   -1.5562    2.9529 C   0  0  0  0  0  0  0  0  0  0  0  0
    1.2713   -1.1414   -0.8728 C   0  0  0  0  0  0  0  0  0  0  0  0
    2.8323    0.6694   -1.2531 C   0  0  0  0  0  0  0  0  0  0  0  0
    1.7836   -1.2624    0.4832 C   0  0  0  0  0  0  0  0  0  0  0  0
    3.3835    0.4888   -0.0372 C   0  0  0  0  0  0  0  0  0  0  0  0
    3.5568    1.7323   -2.3981 Cl  0  0  0  0  0  0  0  0  0  0  0  0
    2.7948   -0.4700    0.8849 C   0  0  0  0  0  0  0  0  0  0  0  0
    3.4367   -0.5827    2.4771 Cl  0  0  0  0  0  0  0  0  0  0  0  0
    0.2192    2.3734   -2.8168 H   0  0  0  0  0  0  0  0  0  0  0  0
   -1.0470    2.5509    0.8226 H   0  0  0  0  0  0  0  0  0  0  0  0
   -2.6615   -0.6451   -1.5268 H   0  0  0  0  0  0  0  0  0  0  0  0
   -0.8239    1.0313    2.7775 H   0  0  0  0  0  0  0  0  0  0  0  0
   -2.7729   -2.0704    0.4879 H   0  0  0  0  0  0  0  0  0  0  0  0
   -2.8086   -1.8793    3.1541 H   0  0  0  0  0  0  0  0  0  0  0  0
   -1.1717   -2.4437    2.7531 H   0  0  0  0  0  0  0  0  0  0  0  0
   -1.3993   -1.0867    3.8661 H   0  0  0  0  0  0  0  0  0  0  0  0
    0.6263   -1.9222   -1.2650 H   0  0  0  0  0  0  0  0  0  0  0  0
    1.3306   -1.9985    1.1391 H   0  0  0  0  0  0  0  0  0  0  0  0
    4.2819    1.0161    0.2658 H   0  0  0  0  0  0  0  0  0  0  0  0
  1  2  1  0
  1  3  1  0
  1  4  2  0
  5  3  1  0
  5  6  1  0
  5  7  2  0
  6  8  2  0
  9  6  1  0
  8 10  1  0
 11  9  2  0
 10 12  2  0
 12 11  1  0
 12 13  1  0
  2 14  2  0
 15  2  1  0
 14 16  1  0
 17 15  2  0
 15 18  1  0
 16 19  2  0
 19 17  1  0
 19 20  1  0
  3 21  1  0
  8 22  1  0
  9 23  1  0
 10 24  1  0
 11 25  1  0
 13 26  1  0
 13 27  1  0
 13 28  1  0
 14 29  1  0
 16 30  1  0
 17 31  1  0
M  END
$$$$

     RDKit          3D

 31 32  0  0  0  0  0  0  0  0999 V2000
    1.2246   -0.4146   -1.0704 C   0  0  0  0  0  0  0  0  0  0  0  0
    2.7122   -0.4091   -1.0616 C   0  0  0  0  0  0  0  0  0  0  0  0
    0.6625    0.4455   -0.1655 N   0  0  0  0  0  0  0  0  0  0  0  0
    0.5962   -1.1000   -1.8679 O   0  0  0  0  0  0  0  0  0  0  0  0
    0.0291   -0.1692    0.8748 C   0  0  0  0  0  0  0  0  0  0  0  0
   -1.4495   -0.0684    0.8167 C   0  0  0  0  0  0  0  0  0  0  0  0
    0.6203   -0.6748    1.8211 O   0  0  0  0  0  0  0  0  0  0  0  0
   -2.1398   -0.9582    0.0785 C   0  0  0  0  0  0  0  0  0  0  0  0
   -2.1546    0.9632    1.5623 C   0  0  0  0  0  0  0  0  0  0  0  0
   -3.5749   -0.7942   -0.0914 C   0  0  0  0  0  0  0  0  0  0  0  0
   -3.4882    1.0883    1.4347 C   0  0  0  0  0  0  0  0  0  0  0  0
   -4.2331    0.1891    0.5561 C   0  0  0  0  0  0  0  0  0  0  0  0
   -5.7081    0.4146    0.4278 C   0  0  0  0  0  0  0  0  0  0  0  0
    3.3581   -1.1095   -0.1089 C   0  0  0  0  0  0  0  0  0  0  0  0
    3.4553    0.4731   -1.9509 C   0  0  0  0  0  0  0  0  0  0  0  0
    4.7553   -0.8143    0.1739 C   0  0  0  0  0  0  0  0  0  0  0  0
    4.7628    0.7008   -1.7240 C   0  0  0  0  0  0  0  0  0  0  0  0
    5.4277    0.0549   -0.6030 C   0  0  0  0  0  0  0  0  0  0  0  0
    7.0827    0.4211   -0.3085 Cl  0  0  0  0  0  0  0  0  0  0  0  0
    1.3253    1.1173    0.1967 H   0  0  0  0  0  0  0  0  0  0  0  0
   -1.6557   -1.7832   -0.4359 H   0  0  0  0  0  0  0  0  0  0  0  0
   -1.5889    1.6068    2.2268 H   0  0  0  0  0  0  0  0  0  0  0  0
   -4.0850   -1.4868   -0.7536 H   0  0  0  0  0  0  0  0  0  0  0  0
   -4.0320    1.8450    1.9911 H   0  0  0  0  0  0  0  0  0  0  0  0
   -6.1734   -0.3131   -0.2460 H   0  0  0  0  0  0  0  0  0  0  0  0
   -6.1984    0.3235    1.4031 H   0  0  0  0  0  0  0  0  0  0  0  0
   -5.9116    1.4141    0.0288 H   0  0  0  0  0  0  0  0  0  0  0  0
    2.8739   -1.9027    0.4546 H   0  0  0  0  0  0  0  0  0  0  0  0
    2.9391    0.9176   -2.7961 H   0  0  0  0  0  0  0  0  0  0  0  0
    5.2252   -1.3202    1.0111 H   0  0  0  0  0  0  0  0  0  0  0  0
    5.3427    1.3435   -2.3779 H   0  0  0  0  0  0  0  0  0  0  0  0
  1  2  1  0
  1  3  1  0
  1  4  2  0
  5  3  1  0
  5  6  1  0
  5  7  2  0
  6  8  2  0
  9  6  1  0
  8 10  1  0
 11  9  2  0
 10 12  2  0
 12 11  1  0
 12 13  1  0
  2 14  2  0
 15  2  1  0
 14 16  1  0
 17 15  2  0
 16 18  2  0
 18 17  1  0
 18 19  1  0
  3 20  1  0
  8 21  1  0
  9 22  1  0
 10 23  1  0
 11 24  1  0
 13 25  1  0
 13 26  1  0
 13 27  1  0
 14 28  1  0
 15 29  1  0
 16 30  1  0
 17 31  1  0
M  END
$$$$

     RDKit          3D

 31 32  0  0  0  0  0  0  0  0999 V2000
   -0.9950   -2.0426   -1.4829 C   0  0  0  0  0  0  0  0  0  0  0  0
   -1.5734   -0.6739   -1.4687 C   0  0  0  0  0  0  0  0  0  0  0  0
   -0.9410   -2.6258   -0.2458 N   0  0  0  0  0  0  0  0  0  0  0  0
   -0.6790   -2.6042   -2.5231 O   0  0  0  0  0  0  0  0  0  0  0  0
    0.2976   -2.8057    0.3044 C   0  0  0  0  0  0  0  0  0  0  0  0
    0.9987   -1.5669    0.7257 C   0  0  0  0  0  0  0  0  0  0  0  0
    0.7640   -3.9207    0.5120 O   0  0  0  0  0  0  0  0  0  0  0  0
    2.0841   -1.1905    0.0209 C   0  0  0  0  0  0  0  0  0  0  0  0
    0.4776   -0.7071    1.7783 C   0  0  0  0  0  0  0  0  0  0  0  0
    2.5778    0.1728    0.1403 C   0  0  0  0  0  0  0  0  0  0  0  0
    0.9824    0.5316    1.9351 C   0  0  0  0  0  0  0  0  0  0  0  0
    2.0547    1.0098    1.0620 C   0  0  0  0  0  0  0  0  0  0  0  0
    2.5102    2.4242    1.2476 C   0  0  0  0  0  0  0  0  0  0  0  0
   -0.7530    0.3624   -1.7255 C   0  0  0  0  0  0  0  0  0  0  0  0
   -2.9343   -0.4224   -1.0150 C   0  0  0  0  0  0  0  0  0  0  0  0
   -1.1099    1.6910   -1.2504 C   0  0  0  0  0  0  0  0  0  0  0  0
   -3.2946    0.8235   -0.6511 C   0  0  0  0  0  0  0  0  0  0  0  0
   -2.3329    1.9181   -0.7327 C   0  0  0  0  0  0  0  0  0  0  0  0
   -2.8570    3.5955   -0.1125 Br  0  0  0  0  0  0  0  0  0  0  0  0
   -1.3588   -3.5460   -0.3181 H   0  0  0  0  0  0  0  0  0  0  0  0
    2.6621   -1.9000   -0.5640 H   0  0  0  0  0  0  0  0  0  0  0  0
   -0.3066   -1.0852    2.4266 H   0  0  0  0  0  0  0  0  0  0  0  0
    3.3833    0.4775   -0.5233 H   0  0  0  0  0  0  0  0  0  0  0  0
    0.6127    1.1889    2.7188 H   0  0  0  0  0  0  0  0  0  0  0  0
    1.6883    3.1201    1.0467 H   0  0  0  0  0  0  0  0  0  0  0  0
    3.3348    2.6795    0.5717 H   0  0  0  0  0  0  0  0  0  0  0  0
    2.8580    2.5875    2.2733 H   0  0  0  0  0  0  0  0  0  0  0  0
    0.1547    0.2468   -2.3106 H   0  0  0  0  0  0  0  0  0  0  0  0
   -3.6371   -1.2481   -0.9730 H   0  0  0  0  0  0  0  0  0  0  0  0
   -0.3667    2.4772   -1.3348 H   0  0  0  0  0  0  0  0  0  0  0  0
   -4.3015    1.0328   -0.3034 H   0  0  0  0  0  0  0  0  0  0  0  0
  1  2  1  0
  1  3  1  0
  1  4  2  0
  5  3  1  0
  5  6  1  0
  5  7  2  0
  6  8  2  0
  9  6  1  0
  8 10  1  0
 11  9  2  0
 10 12  2  0
 12 11  1  0
 12 13  1  0
  2 14  2  0
 15  2  1  0
 14 16  1  0
 17 15  2  0
 16 18  2  0
 18 17  1  0
 18 19  1  0
  3 20  1  0
  8 21  1  0
  9 22  1  0
 10 23  1  0
 11 24  1  0
 13 25  1  0
 13 26  1  0
 13 27  1  0
 14 28  1  0
 15 29  1  0
 16 30  1  0
 17 31  1  0
M  END
$$$$

     RDKit          3D

 32 33  0  0  0  0  0  0  0  0999 V2000
   -1.4896   -0.5952   -1.4019 C   0  0  0  0  0  0  0  0  0  0  0  0
   -1.9314   -0.8042   -0.0009 C   0  0  0  0  0  0  0  0  0  0  0  0
   -1.2580    0.7141   -1.7234 N   0  0  0  0  0  0  0  0  0  0  0  0
   -1.4702   -1.5355   -2.1891 O   0  0  0  0  0  0  0  0  0  0  0  0
   -0.1088    0.9903   -2.4099 C   0  0  0  0  0  0  0  0  0  0  0  0
    1.1452    0.8376   -1.6313 C   0  0  0  0  0  0  0  0  0  0  0  0
   -0.1140    1.4130   -3.5602 O   0  0  0  0  0  0  0  0  0  0  0  0
    1.5114    1.8337   -0.8027 C   0  0  0  0  0  0  0  0  0  0  0  0
    1.8749   -0.4201   -1.6234 C   0  0  0  0  0  0  0  0  0  0  0  0
    2.4455    1.5565    0.2773 C   0  0  0  0  0  0  0  0  0  0  0  0
    2.7904   -0.6525   -0.6654 C   0  0  0  0  0  0  0  0  0  0  0  0
    3.0677    0.3614    0.3507 C   0  0  0  0  0  0  0  0  0  0  0  0
    4.0546    0.0111    1.4212 C   0  0  0  0  0  0  0  0  0  0  0  0
   -1.1443   -0.3974    1.0151 C   0  0  0  0  0  0  0  0  0  0  0  0
   -3.3210   -1.1505    0.2766 C   0  0  0  0  0  0  0  0  0  0  0  0
   -1.7663    0.1209    2.2243 C   0  0  0  0  0  0  0  0  0  0  0  0
   -3.8815   -0.7718    1.4381 C   0  0  0  0  0  0  0  0  0  0  0  0
   -4.0108   -1.9001   -0.6493 O   0  0  0  0  0  0  0  0  0  0  0  0
   -3.0858   -0.0560    2.4243 C   0  0  0  0  0  0  0  0  0  0  0  0
   -2.0302    1.0667   -2.2747 H   0  0  0  0  0  0  0  0  0  0  0  0
    1.2122    2.8625   -0.9756 H   0  0  0  0  0  0  0  0  0  0  0  0
    1.6642   -1.1495   -2.3998 H   0  0  0  0  0  0  0  0  0  0  0  0
    2.6357    2.3466    0.9971 H   0  0  0  0  0  0  0  0  0  0  0  0
    3.3475   -1.5844   -0.6445 H   0  0  0  0  0  0  0  0  0  0  0  0
    5.0312   -0.2218    0.9836 H   0  0  0  0  0  0  0  0  0  0  0  0
    4.1958    0.8350    2.1290 H   0  0  0  0  0  0  0  0  0  0  0  0
    3.7118   -0.8599    1.9900 H   0  0  0  0  0  0  0  0  0  0  0  0
   -0.0677   -0.5268    1.0002 H   0  0  0  0  0  0  0  0  0  0  0  0
   -1.1429    0.6263    2.9544 H   0  0  0  0  0  0  0  0  0  0  0  0
   -4.9089   -1.0244    1.6757 H   0  0  0  0  0  0  0  0  0  0  0  0
   -3.3786   -2.2291   -1.3204 H   0  0  0  0  0  0  0  0  0  0  0  0
   -3.5781    0.3036    3.3217 H   0  0  0  0  0  0  0  0  0  0  0  0
  1  2  1  0
  1  3  1  0
  1  4  2  0
  5  3  1  0
  5  6  1  0
  5  7  2  0
  6  8  2  0
  9  6  1  0
  8 10  1  0
 11  9  2  0
 10 12  2  0
 12 11  1  0
 12 13  1  0
  2 14  2  0
 15  2  1  0
 14 16  1  0
 17 15  2  0
 15 18  1  0
 16 19  2  0
 19 17  1  0
  3 20  1  0
  8 21  1  0
  9 22  1  0
 10 23  1  0
 11 24  1  0
 13 25  1  0
 13 26  1  0
 13 27  1  0
 14 28  1  0
 16 29  1  0
 17 30  1  0
 18 31  1  0
 19 32  1  0
M  END
$$$$

     RDKit          3D

 31 32  0  0  0  0  0  0  0  0999 V2000
   -1.2865   -0.6879   -0.8288 C   0  0  0  0  0  0  0  0  0  0  0  0
   -2.7403   -0.3988   -0.7913 C   0  0  0  0  0  0  0  0  0  0  0  0
   -0.4988    0.4304   -0.8746 N   0  0  0  0  0  0  0  0  0  0  0  0
   -0.8544   -1.8347   -0.8323 O   0  0  0  0  0  0  0  0  0  0  0  0
   -0.0041    0.8284    0.3324 C   0  0  0  0  0  0  0  0  0  0  0  0
    1.4516    0.5888    0.4861 C   0  0  0  0  0  0  0  0  0  0  0  0
   -0.6720    1.4057    1.1816 O   0  0  0  0  0  0  0  0  0  0  0  0
    1.8795   -0.6308    0.8645 C   0  0  0  0  0  0  0  0  0  0  0  0
    2.4057    1.6709    0.2972 C   0  0  0  0  0  0  0  0  0  0  0  0
    3.3053   -0.8876    0.9926 C   0  0  0  0  0  0  0  0  0  0  0  0
    3.7227    1.4362    0.4404 C   0  0  0  0  0  0  0  0  0  0  0  0
    4.2007    0.1002    0.7883 C   0  0  0  0  0  0  0  0  0  0  0  0
    5.6809   -0.0952    0.9021 C   0  0  0  0  0  0  0  0  0  0  0  0
   -3.4039   -0.5757    0.3686 C   0  0  0  0  0  0  0  0  0  0  0  0
   -3.4782   -0.1754   -2.0181 C   0  0  0  0  0  0  0  0  0  0  0  0
   -4.8557   -0.6856    0.3549 C   0  0  0  0  0  0  0  0  0  0  0  0
   -4.8198   -0.2353   -2.0288 C   0  0  0  0  0  0  0  0  0  0  0  0
   -2.7969    0.1323   -3.1400 F   0  0  0  0  0  0  0  0  0  0  0  0
   -5.5351   -0.5240   -0.7959 C   0  0  0  0  0  0  0  0  0  0  0  0
   -0.9394    1.2045   -1.3521 H   0  0  0  0  0  0  0  0  0  0  0  0
    1.1973   -1.4611    1.0219 H   0  0  0  0  0  0  0  0  0  0  0  0
    2.0327    2.6604    0.0563 H   0  0  0  0  0  0  0  0  0  0  0  0
    3.6131   -1.8961    1.2509 H   0  0  0  0  0  0  0  0  0  0  0  0
    4.4472    2.2341    0.3108 H   0  0  0  0  0  0  0  0  0  0  0  0
    6.0970    0.5578    1.6766 H   0  0  0  0  0  0  0  0  0  0  0  0
    5.9356   -1.1273    1.1661 H   0  0  0  0  0  0  0  0  0  0  0  0
    6.1736    0.1353   -0.0485 H   0  0  0  0  0  0  0  0  0  0  0  0
   -2.8922   -0.6131    1.3260 H   0  0  0  0  0  0  0  0  0  0  0  0
   -5.3655   -0.8958    1.2900 H   0  0  0  0  0  0  0  0  0  0  0  0
   -5.3827   -0.0609   -2.9381 H   0  0  0  0  0  0  0  0  0  0  0  0
   -6.6172   -0.5997   -0.8296 H   0  0  0  0  0  0  0  0  0  0  0  0
  1  2  1  0
  1  3  1  0
  1  4  2  0
  5  3  1  0
  5  6  1  0
  5  7  2  0
  6  8  2  0
  9  6  1  0
  8 10  1  0
 11  9  2  0
 10 12  2  0
 12 11  1  0
 12 13  1  0
  2 14  2  0
 15  2  1  0
 14 16  1  0
 17 15  2  0
 15 18  1  0
 16 19  2  0
 19 17  1  0
  3 20  1  0
  8 21  1  0
  9 22  1  0
 10 23  1  0
 11 24  1  0
 13 25  1  0
 13 26  1  0
 13 27  1  0
 14 28  1  0
 16 29  1  0
 17 30  1  0
 19 31  1  0
M  END
$$$$

     RDKit          3D

 31 32  0  0  0  0  0  0  0  0999 V2000
    1.4826   -0.6364   -0.3438 C   0  0  0  0  0  0  0  0  0  0  0  0
    2.8846   -0.1450   -0.4192 C   0  0  0  0  0  0  0  0  0  0  0  0
    0.6694    0.1294    0.4479 N   0  0  0  0  0  0  0  0  0  0  0  0
    1.1393   -1.6670   -0.9107 O   0  0  0  0  0  0  0  0  0  0  0  0
   -0.2720    0.8430   -0.2353 C   0  0  0  0  0  0  0  0  0  0  0  0
   -1.6548    0.3429   -0.0431 C   0  0  0  0  0  0  0  0  0  0  0  0
   -0.0185    1.8562   -0.8762 O   0  0  0  0  0  0  0  0  0  0  0  0
   -2.4596    1.0215    0.7972 C   0  0  0  0  0  0  0  0  0  0  0  0
   -2.1258   -0.8773   -0.6774 C   0  0  0  0  0  0  0  0  0  0  0  0
   -3.7320    0.4429    1.1995 C   0  0  0  0  0  0  0  0  0  0  0  0
   -3.3233   -1.3879   -0.3381 C   0  0  0  0  0  0  0  0  0  0  0  0
   -4.1589   -0.7148    0.6538 C   0  0  0  0  0  0  0  0  0  0  0  0
   -5.4637   -1.3592    1.0066 C   0  0  0  0  0  0  0  0  0  0  0  0
    3.1747    0.8596   -1.2698 C   0  0  0  0  0  0  0  0  0  0  0  0
    3.8900   -0.6256    0.5214 C   0  0  0  0  0  0  0  0  0  0  0  0
    4.4254    1.5878   -1.1184 C   0  0  0  0  0  0  0  0  0  0  0  0
    5.0652    0.0225    0.6259 C   0  0  0  0  0  0  0  0  0  0  0  0
    5.3233    1.1795   -0.2075 C   0  0  0  0  0  0  0  0  0  0  0  0
    6.4919    1.8303   -0.0527 F   0  0  0  0  0  0  0  0  0  0  0  0
    1.1873    0.7494    1.0551 H   0  0  0  0  0  0  0  0  0  0  0  0
   -2.2544    2.0482    1.0839 H   0  0  0  0  0  0  0  0  0  0  0  0
   -1.4916   -1.3664   -1.4100 H   0  0  0  0  0  0  0  0  0  0  0  0
   -4.3263    0.9849    1.9280 H   0  0  0  0  0  0  0  0  0  0  0  0
   -3.6826   -2.3041   -0.7948 H   0  0  0  0  0  0  0  0  0  0  0  0
   -6.0197   -0.7731    1.7456 H   0  0  0  0  0  0  0  0  0  0  0  0
   -6.0972   -1.4567    0.1185 H   0  0  0  0  0  0  0  0  0  0  0  0
   -5.2987   -2.3566    1.4280 H   0  0  0  0  0  0  0  0  0  0  0  0
    2.5088    1.1415   -2.0808 H   0  0  0  0  0  0  0  0  0  0  0  0
    3.6745   -1.5128    1.1086 H   0  0  0  0  0  0  0  0  0  0  0  0
    4.6169    2.4462   -1.7508 H   0  0  0  0  0  0  0  0  0  0  0  0
    5.8453   -0.3028    1.3041 H   0  0  0  0  0  0  0  0  0  0  0  0
  1  2  1  0
  1  3  1  0
  1  4  2  0
  5  3  1  0
  5  6  1  0
  5  7  2  0
  6  8  2  0
  9  6  1  0
  8 10  1  0
 11  9  2  0
 10 12  2  0
 12 11  1  0
 12 13  1  0
  2 14  2  0
 15  2  1  0
 14 16  1  0
 17 15  2  0
 16 18  2  0
 18 17  1  0
 18 19  1  0
  3 20  1  0
  8 21  1  0
  9 22  1  0
 10 23  1  0
 11 24  1  0
 13 25  1  0
 13 26  1  0
 13 27  1  0
 14 28  1  0
 15 29  1  0
 16 30  1  0
 17 31  1  0
M  END
$$$$

     RDKit          3D

 31 32  0  0  0  0  0  0  0  0999 V2000
   -1.1044   -1.5251   -1.4281 C   0  0  0  0  0  0  0  0  0  0  0  0
   -1.8168   -1.2943   -0.1468 C   0  0  0  0  0  0  0  0  0  0  0  0
   -0.9838   -0.3882   -2.1823 N   0  0  0  0  0  0  0  0  0  0  0  0
   -0.7439   -2.6397   -1.7811 O   0  0  0  0  0  0  0  0  0  0  0  0
    0.2804   -0.0064   -2.5349 C   0  0  0  0  0  0  0  0  0  0  0  0
    1.1518    0.4355   -1.4179 C   0  0  0  0  0  0  0  0  0  0  0  0
    0.6426    0.0485   -3.7051 O   0  0  0  0  0  0  0  0  0  0  0  0
    2.1290   -0.3972   -1.0123 C   0  0  0  0  0  0  0  0  0  0  0  0
    0.8875    1.6633   -0.6854 C   0  0  0  0  0  0  0  0  0  0  0  0
    2.7745   -0.1736    0.2712 C   0  0  0  0  0  0  0  0  0  0  0  0
    1.5249    1.8958    0.4767 C   0  0  0  0  0  0  0  0  0  0  0  0
    2.4891    0.9279    0.9962 C   0  0  0  0  0  0  0  0  0  0  0  0
    3.1218    1.2278    2.3199 C   0  0  0  0  0  0  0  0  0  0  0  0
   -1.0862   -1.0887    0.9657 C   0  0  0  0  0  0  0  0  0  0  0  0
   -3.2603   -1.1030   -0.1109 C   0  0  0  0  0  0  0  0  0  0  0  0
   -1.6818   -0.3852    2.0898 C   0  0  0  0  0  0  0  0  0  0  0  0
   -3.8273   -0.5277    0.9655 C   0  0  0  0  0  0  0  0  0  0  0  0
   -3.0002   -0.1170    2.0889 C   0  0  0  0  0  0  0  0  0  0  0  0
   -1.4981   -0.5156   -3.0443 H   0  0  0  0  0  0  0  0  0  0  0  0
    2.4831   -1.2136   -1.6353 H   0  0  0  0  0  0  0  0  0  0  0  0
    0.1788    2.3742   -1.0953 H   0  0  0  0  0  0  0  0  0  0  0  0
    3.4939   -0.9132    0.6091 H   0  0  0  0  0  0  0  0  0  0  0  0
    1.3419    2.8065    1.0379 H   0  0  0  0  0  0  0  0  0  0  0  0
    3.8315    0.4477    2.6168 H   0  0  0  0  0  0  0  0  0  0  0  0
    2.3591    1.2988    3.1029 H   0  0  0  0  0  0  0  0  0  0  0  0
    3.6687    2.1759    2.2794 H   0  0  0  0  0  0  0  0  0  0  0  0
   -0.0847   -1.4912    1.0801 H   0  0  0  0  0  0  0  0  0  0  0  0
   -3.8546   -1.4425   -0.9521 H   0  0  0  0  0  0  0  0  0  0  0  0
   -1.0430   -0.1038    2.9198 H   0  0  0  0  0  0  0  0  0  0  0  0
   -4.8992   -0.3733    1.0288 H   0  0  0  0  0  0  0  0  0  0  0  0
   -3.4740    0.3975    2.9185 H   0  0  0  0  0  0  0  0  0  0  0  0
  1  2  1  0
  1  3  1  0
  1  4  2  0
  5  3  1  0
  5  6  1  0
  5  7  2  0
  6  8  2  0
  9  6  1  0
  8 10  1  0
 11  9  2  0
 10 12  2  0
 12 11  1  0
 12 13  1  0
  2 14  2  0
 15  2  1  0
 14 16  1  0
 17 15  2  0
 16 18  2  0
 18 17  1  0
  3 19  1  0
  8 20  1  0
  9 21  1  0
 10 22  1  0
 11 23  1  0
 13 24  1  0
 13 25  1  0
 13 26  1  0
 14 27  1  0
 15 28  1  0
 16 29  1  0
 17 30  1  0
 18 31  1  0
M  END
$$$$

     RDKit          3D

 31 32  0  0  0  0  0  0  0  0999 V2000
   -1.3538    0.6536   -0.1367 C   0  0  0  0  0  0  0  0  0  0  0  0
   -2.7814    0.2895   -0.0023 C   0  0  0  0  0  0  0  0  0  0  0  0
   -0.5061   -0.2442    0.4414 N   0  0  0  0  0  0  0  0  0  0  0  0
   -0.9812    1.6929   -0.6670 O   0  0  0  0  0  0  0  0  0  0  0  0
    0.1065   -1.0875   -0.4468 C   0  0  0  0  0  0  0  0  0  0  0  0
    1.5805   -0.9124   -0.5251 C   0  0  0  0  0  0  0  0  0  0  0  0
   -0.4708   -1.9501   -1.0982 O   0  0  0  0  0  0  0  0  0  0  0  0
    2.0595    0.1399   -1.2153 C   0  0  0  0  0  0  0  0  0  0  0  0
    2.4562   -1.6436    0.3775 C   0  0  0  0  0  0  0  0  0  0  0  0
    3.3331    0.7258   -0.8296 C   0  0  0  0  0  0  0  0  0  0  0  0
    3.6698   -1.1457    0.6768 C   0  0  0  0  0  0  0  0  0  0  0  0
    4.1162    0.1133    0.0826 C   0  0  0  0  0  0  0  0  0  0  0  0
    5.4450    0.6492    0.5184 C   0  0  0  0  0  0  0  0  0  0  0  0
   -3.4128   -0.2492   -1.0659 C   0  0  0  0  0  0  0  0  0  0  0  0
   -3.5493    0.7504    1.1397 C   0  0  0  0  0  0  0  0  0  0  0  0
   -4.8691   -0.2703   -1.0997 C   0  0  0  0  0  0  0  0  0  0  0  0
   -4.8914    0.7082    1.1236 C   0  0  0  0  0  0  0  0  0  0  0  0
   -2.8928    1.2084    2.2248 F   0  0  0  0  0  0  0  0  0  0  0  0
   -5.5661    0.1895   -0.0472 C   0  0  0  0  0  0  0  0  0  0  0  0
   -6.9129    0.1703   -0.0521 F   0  0  0  0  0  0  0  0  0  0  0  0
    0.1569    0.2549    1.0216 H   0  0  0  0  0  0  0  0  0  0  0  0
    1.5277    0.5657   -2.0613 H   0  0  0  0  0  0  0  0  0  0  0  0
    2.1137   -2.5911    0.7810 H   0  0  0  0  0  0  0  0  0  0  0  0
    3.6271    1.6551   -1.3082 H   0  0  0  0  0  0  0  0  0  0  0  0
    4.3429   -1.6798    1.3406 H   0  0  0  0  0  0  0  0  0  0  0  0
    5.6889    1.5904    0.0140 H   0  0  0  0  0  0  0  0  0  0  0  0
    6.2424   -0.0661    0.2903 H   0  0  0  0  0  0  0  0  0  0  0  0
    5.4475    0.8402    1.5968 H   0  0  0  0  0  0  0  0  0  0  0  0
   -2.8709   -0.7325   -1.8743 H   0  0  0  0  0  0  0  0  0  0  0  0
   -5.3709   -0.6684   -1.9741 H   0  0  0  0  0  0  0  0  0  0  0  0
   -5.4842    1.0435    1.9644 H   0  0  0  0  0  0  0  0  0  0  0  0
  1  2  1  0
  1  3  1  0
  1  4  2  0
  5  3  1  0
  5  6  1  0
  5  7  2  0
  6  8  2  0
  9  6  1  0
  8 10  1  0
 11  9  2  0
 10 12  2  0
 12 11  1  0
 12 13  1  0
  2 14  2  0
 15  2  1  0
 14 16  1  0
 17 15  2  0
 15 18  1  0
 16 19  2  0
 19 17  1  0
 19 20  1  0
  3 21  1  0
  8 22  1  0
  9 23  1  0
 10 24  1  0
 11 25  1  0
 13 26  1  0
 13 27  1  0
 13 28  1  0
 14 29  1  0
 16 30  1  0
 17 31  1  0
M  END
$$$$

     RDKit          3D

 33 34  0  0  0  0  0  0  0  0999 V2000
    4.8643   -1.0236    0.1165 O   0  0  0  0  0  0  0  0  0  0  0  0
    3.6420   -0.3963    0.1811 C   0  0  0  0  0  0  0  0  0  0  0  0
    5.5843   -0.5751   -1.0307 C   0  0  0  0  0  0  0  0  0  0  0  0
    2.5172   -0.9470   -0.3133 C   0  0  0  0  0  0  0  0  0  0  0  0
    3.5567    0.7251    1.1024 C   0  0  0  0  0  0  0  0  0  0  0  0
    1.2282   -0.3268   -0.0409 C   0  0  0  0  0  0  0  0  0  0  0  0
    2.3664    1.3075    1.3378 C   0  0  0  0  0  0  0  0  0  0  0  0
    1.1702    0.8169    0.6689 C   0  0  0  0  0  0  0  0  0  0  0  0
    0.1269    1.6922    0.5247 N   0  0  0  0  0  0  0  0  0  0  0  0
   -0.8358    1.8421    1.4968 C   0  0  0  0  0  0  0  0  0  0  0  0
   -2.0400    1.0031    1.2713 C   0  0  0  0  0  0  0  0  0  0  0  0
   -0.7542    2.6170    2.4419 O   0  0  0  0  0  0  0  0  0  0  0  0
   -3.0054    1.4811    0.4636 C   0  0  0  0  0  0  0  0  0  0  0  0
   -2.0949   -0.3749    1.7312 C   0  0  0  0  0  0  0  0  0  0  0  0
   -3.9161    0.5507   -0.1858 C   0  0  0  0  0  0  0  0  0  0  0  0
   -2.9887   -1.2217    1.1883 C   0  0  0  0  0  0  0  0  0  0  0  0
   -3.9157   -0.7542    0.1586 C   0  0  0  0  0  0  0  0  0  0  0  0
   -4.8363   -1.7667   -0.4499 C   0  0  0  0  0  0  0  0  0  0  0  0
    5.7419    0.5089   -1.0004 H   0  0  0  0  0  0  0  0  0  0  0  0
    6.5643   -1.0615   -1.0253 H   0  0  0  0  0  0  0  0  0  0  0  0
    5.0665   -0.8600   -1.9534 H   0  0  0  0  0  0  0  0  0  0  0  0
    2.5313   -1.9293   -0.7720 H   0  0  0  0  0  0  0  0  0  0  0  0
    4.4591    1.0619    1.5999 H   0  0  0  0  0  0  0  0  0  0  0  0
    0.3351   -0.8978   -0.2730 H   0  0  0  0  0  0  0  0  0  0  0  0
    2.2700    2.1337    2.0357 H   0  0  0  0  0  0  0  0  0  0  0  0
   -0.1354    1.9467   -0.4188 H   0  0  0  0  0  0  0  0  0  0  0  0
   -3.2141    2.5440    0.3925 H   0  0  0  0  0  0  0  0  0  0  0  0
   -1.4089   -0.6896    2.5108 H   0  0  0  0  0  0  0  0  0  0  0  0
   -4.6025    0.9479   -0.9271 H   0  0  0  0  0  0  0  0  0  0  0  0
   -3.0482   -2.2542    1.5189 H   0  0  0  0  0  0  0  0  0  0  0  0
   -4.2631   -2.5658   -0.9323 H   0  0  0  0  0  0  0  0  0  0  0  0
   -5.4778   -2.2142    0.3170 H   0  0  0  0  0  0  0  0  0  0  0  0
   -5.4872   -1.3201   -1.2092 H   0  0  0  0  0  0  0  0  0  0  0  0
  1  2  1  0
  1  3  1  0
  4  2  2  0
  2  5  1  0
  6  4  1  0
  5  7  2  0
  8  6  2  0
  7  8  1  0
  9  8  1  0
 10  9  1  0
 10 11  1  0
 10 12  2  0
 11 13  2  0
 14 11  1  0
 13 15  1  0
 16 14  2  0
 15 17  2  0
 17 16  1  0
 17 18  1  0
  3 19  1  0
  3 20  1  0
  3 21  1  0
  4 22  1  0
  5 23  1  0
  6 24  1  0
  7 25  1  0
  9 26  1  0
 13 27  1  0
 14 28  1  0
 15 29  1  0
 16 30  1  0
 18 31  1  0
 18 32  1  0
 18 33  1  0
M  END
$$$$

     RDKit          3D

 40 42  0  0  0  0  0  0  0  0999 V2000
    2.4865    0.1805   -0.7250 C   0  0  0  0  0  0  0  0  0  0  0  0
    3.9129    0.4176   -0.4883 C   0  0  0  0  0  0  0  0  0  0  0  0
    2.1020   -0.8680   -1.4870 C   0  0  0  0  0  0  0  0  0  0  0  0
    1.4354    0.9098   -0.0073 C   0  0  0  0  0  0  0  0  0  0  0  0
    0.8030   -1.4917   -1.2756 C   0  0  0  0  0  0  0  0  0  0  0  0
    0.2209    0.3552    0.1650 C   0  0  0  0  0  0  0  0  0  0  0  0
   -0.0527   -0.9662   -0.3778 C   0  0  0  0  0  0  0  0  0  0  0  0
   -0.9192   -1.7584    0.3380 N   0  0  0  0  0  0  0  0  0  0  0  0
   -2.1216   -2.1450   -0.2105 C   0  0  0  0  0  0  0  0  0  0  0  0
   -3.2059   -1.1409   -0.0603 C   0  0  0  0  0  0  0  0  0  0  0  0
   -2.3011   -3.2480   -0.7115 O   0  0  0  0  0  0  0  0  0  0  0  0
   -3.7950   -0.9986    1.1428 C   0  0  0  0  0  0  0  0  0  0  0  0
   -3.6656   -0.3599   -1.1977 C   0  0  0  0  0  0  0  0  0  0  0  0
   -4.9055   -0.0705    1.2966 C   0  0  0  0  0  0  0  0  0  0  0  0
   -4.6927    0.4978   -1.0517 C   0  0  0  0  0  0  0  0  0  0  0  0
   -5.3487    0.6501    0.2454 C   0  0  0  0  0  0  0  0  0  0  0  0
   -6.5004    1.6024    0.3312 C   0  0  0  0  0  0  0  0  0  0  0  0
    4.5483    1.3202   -1.2715 C   0  0  0  0  0  0  0  0  0  0  0  0
    4.6927   -0.2188    0.5884 C   0  0  0  0  0  0  0  0  0  0  0  0
    5.9667    1.6241   -1.0993 C   0  0  0  0  0  0  0  0  0  0  0  0
    5.9907    0.0729    0.7656 C   0  0  0  0  0  0  0  0  0  0  0  0
    4.0651   -1.1262    1.4156 O   0  0  0  0  0  0  0  0  0  0  0  0
    6.8983    2.9650   -2.3632 I   0  0  0  0  0  0  0  0  0  0  0  0
    6.6533    1.0186   -0.1116 C   0  0  0  0  0  0  0  0  0  0  0  0
    2.6857   -1.1914   -2.3445 H   0  0  0  0  0  0  0  0  0  0  0  0
    1.6622    1.9035    0.3673 H   0  0  0  0  0  0  0  0  0  0  0  0
    0.4907   -2.2737   -1.9615 H   0  0  0  0  0  0  0  0  0  0  0  0
   -0.5737    0.8822    0.6823 H   0  0  0  0  0  0  0  0  0  0  0  0
   -0.4674   -2.5518    0.7817 H   0  0  0  0  0  0  0  0  0  0  0  0
   -3.4946   -1.5853    2.0057 H   0  0  0  0  0  0  0  0  0  0  0  0
   -3.1689   -0.4916   -2.1534 H   0  0  0  0  0  0  0  0  0  0  0  0
   -5.3632    0.0049    2.2777 H   0  0  0  0  0  0  0  0  0  0  0  0
   -5.0504    1.0849   -1.8928 H   0  0  0  0  0  0  0  0  0  0  0  0
   -7.2953    1.3057   -0.3641 H   0  0  0  0  0  0  0  0  0  0  0  0
   -6.9340    1.6250    1.3397 H   0  0  0  0  0  0  0  0  0  0  0  0
   -6.1832    2.6191    0.0811 H   0  0  0  0  0  0  0  0  0  0  0  0
    4.0155    1.8424   -2.0613 H   0  0  0  0  0  0  0  0  0  0  0  0
    6.5655   -0.3932    1.5580 H   0  0  0  0  0  0  0  0  0  0  0  0
    3.1363   -1.2070    1.1378 H   0  0  0  0  0  0  0  0  0  0  0  0
    7.7074    1.2041    0.0622 H   0  0  0  0  0  0  0  0  0  0  0  0
  1  2  1  0
  3  1  2  0
  1  4  1  0
  5  3  1  0
  4  6  2  0
  7  5  2  0
  6  7  1  0
  8  7  1  0
  9  8  1  0
  9 10  1  0
  9 11  2  0
 10 12  2  0
 13 10  1  0
 12 14  1  0
 15 13  2  0
 14 16  2  0
 16 15  1  0
 16 17  1  0
  2 18  2  0
 19  2  1  0
 18 20  1  0
 21 19  2  0
 19 22  1  0
 20 23  1  0
 20 24  2  0
 24 21  1  0
  3 25  1  0
  4 26  1  0
  5 27  1  0
  6 28  1  0
  8 29  1  0
 12 30  1  0
 13 31  1  0
 14 32  1  0
 15 33  1  0
 17 34  1  0
 17 35  1  0
 17 36  1  0
 18 37  1  0
 21 38  1  0
 22 39  1  0
 24 40  1  0
M  END
$$$$

     RDKit          3D

 39 41  0  0  0  0  0  0  0  0999 V2000
    2.5103   -0.1556    0.1805 C   0  0  0  0  0  0  0  0  0  0  0  0
    3.7637   -0.5670    0.8194 C   0  0  0  0  0  0  0  0  0  0  0  0
    1.3291   -0.5242    0.7278 C   0  0  0  0  0  0  0  0  0  0  0  0
    2.4748    0.6931   -1.0160 C   0  0  0  0  0  0  0  0  0  0  0  0
    0.0730    0.0151    0.2300 C   0  0  0  0  0  0  0  0  0  0  0  0
    1.3151    1.2077   -1.4626 C   0  0  0  0  0  0  0  0  0  0  0  0
    0.0764    0.9287   -0.7579 C   0  0  0  0  0  0  0  0  0  0  0  0
   -0.9424    1.8332   -0.8971 N   0  0  0  0  0  0  0  0  0  0  0  0
   -1.8867    1.7164   -1.8910 C   0  0  0  0  0  0  0  0  0  0  0  0
   -3.1097    0.9903   -1.4640 C   0  0  0  0  0  0  0  0  0  0  0  0
   -1.7752    2.1904   -3.0149 O   0  0  0  0  0  0  0  0  0  0  0  0
   -4.0668    1.6801   -0.8152 C   0  0  0  0  0  0  0  0  0  0  0  0
   -3.1931   -0.4585   -1.5515 C   0  0  0  0  0  0  0  0  0  0  0  0
   -4.9958    0.9679    0.0483 C   0  0  0  0  0  0  0  0  0  0  0  0
   -4.1045   -1.1181   -0.8136 C   0  0  0  0  0  0  0  0  0  0  0  0
   -5.0223   -0.3814    0.0540 C   0  0  0  0  0  0  0  0  0  0  0  0
   -5.9641   -1.1826    0.8987 C   0  0  0  0  0  0  0  0  0  0  0  0
    4.3580   -1.6993    0.3742 C   0  0  0  0  0  0  0  0  0  0  0  0
    4.5384    0.2739    1.7559 C   0  0  0  0  0  0  0  0  0  0  0  0
    5.8022   -1.8420    0.4212 C   0  0  0  0  0  0  0  0  0  0  0  0
    5.8648    0.0724    1.8948 C   0  0  0  0  0  0  0  0  0  0  0  0
    3.6558    1.5831    2.7596 Br  0  0  0  0  0  0  0  0  0  0  0  0
    6.5305   -0.9843    1.1545 C   0  0  0  0  0  0  0  0  0  0  0  0
    1.2749   -1.2623    1.5225 H   0  0  0  0  0  0  0  0  0  0  0  0
    3.4079    0.8895   -1.5343 H   0  0  0  0  0  0  0  0  0  0  0  0
   -0.8491   -0.4027    0.6195 H   0  0  0  0  0  0  0  0  0  0  0  0
    1.2782    1.8263   -2.3539 H   0  0  0  0  0  0  0  0  0  0  0  0
   -1.2125    2.3504   -0.0702 H   0  0  0  0  0  0  0  0  0  0  0  0
   -4.2505    2.7302   -1.0194 H   0  0  0  0  0  0  0  0  0  0  0  0
   -2.5136   -0.9772   -2.2197 H   0  0  0  0  0  0  0  0  0  0  0  0
   -5.6734    1.5569    0.6583 H   0  0  0  0  0  0  0  0  0  0  0  0
   -4.1854   -2.1993   -0.8667 H   0  0  0  0  0  0  0  0  0  0  0  0
   -5.4086   -1.8324    1.5834 H   0  0  0  0  0  0  0  0  0  0  0  0
   -6.6077   -1.8082    0.2710 H   0  0  0  0  0  0  0  0  0  0  0  0
   -6.6134   -0.5407    1.5039 H   0  0  0  0  0  0  0  0  0  0  0  0
    3.7819   -2.5200   -0.0425 H   0  0  0  0  0  0  0  0  0  0  0  0
    6.2638   -2.6522   -0.1330 H   0  0  0  0  0  0  0  0  0  0  0  0
    6.4659    0.6689    2.5730 H   0  0  0  0  0  0  0  0  0  0  0  0
    7.6100   -1.0666    1.2206 H   0  0  0  0  0  0  0  0  0  0  0  0
  1  2  1  0
  3  1  2  0
  1  4  1  0
  5  3  1  0
  4  6  2  0
  7  5  2  0
  6  7  1  0
  8  7  1  0
  9  8  1  0
  9 10  1  0
  9 11  2  0
 10 12  2  0
 13 10  1  0
 12 14  1  0
 15 13  2  0
 14 16  2  0
 16 15  1  0
 16 17  1  0
  2 18  2  0
 19  2  1  0
 18 20  1  0
 21 19  2  0
 19 22  1  0
 20 23  2  0
 23 21  1  0
  3 24  1  0
  4 25  1  0
  5 26  1  0
  6 27  1  0
  8 28  1  0
 12 29  1  0
 13 30  1  0
 14 31  1  0
 15 32  1  0
 17 33  1  0
 17 34  1  0
 17 35  1  0
 18 36  1  0
 20 37  1  0
 21 38  1  0
 23 39  1  0
M  END
$$$$

     RDKit          3D

 42 44  0  0  0  0  0  0  0  0999 V2000
    1.9978    0.0925   -0.1533 C   0  0  0  0  0  0  0  0  0  0  0  0
    3.2892   -0.2659    0.4322 C   0  0  0  0  0  0  0  0  0  0  0  0
    1.9554    0.9175   -1.2241 C   0  0  0  0  0  0  0  0  0  0  0  0
    0.7240   -0.3758    0.4033 C   0  0  0  0  0  0  0  0  0  0  0  0
    0.6849    1.3604   -1.7761 C   0  0  0  0  0  0  0  0  0  0  0  0
   -0.4498    0.0764   -0.0738 C   0  0  0  0  0  0  0  0  0  0  0  0
   -0.4667    1.0478   -1.1558 C   0  0  0  0  0  0  0  0  0  0  0  0
   -1.5728    1.8472   -1.2882 N   0  0  0  0  0  0  0  0  0  0  0  0
   -2.5334    1.5835   -2.2406 C   0  0  0  0  0  0  0  0  0  0  0  0
   -3.7668    0.9750   -1.6778 C   0  0  0  0  0  0  0  0  0  0  0  0
   -2.4341    1.8582   -3.4301 O   0  0  0  0  0  0  0  0  0  0  0  0
   -3.8392   -0.3678   -1.6153 C   0  0  0  0  0  0  0  0  0  0  0  0
   -4.7386    1.7865   -0.9597 C   0  0  0  0  0  0  0  0  0  0  0  0
   -4.6601   -0.9891   -0.5881 C   0  0  0  0  0  0  0  0  0  0  0  0
   -5.5573    1.2049   -0.0642 C   0  0  0  0  0  0  0  0  0  0  0  0
   -5.4889   -0.2378    0.1676 C   0  0  0  0  0  0  0  0  0  0  0  0
   -6.3695   -0.8074    1.2370 C   0  0  0  0  0  0  0  0  0  0  0  0
    3.9209   -1.3865    0.0159 C   0  0  0  0  0  0  0  0  0  0  0  0
    3.9148    0.5166    1.5012 C   0  0  0  0  0  0  0  0  0  0  0  0
    5.1714   -1.8135    0.6210 C   0  0  0  0  0  0  0  0  0  0  0  0
    5.0737    0.1257    2.0604 C   0  0  0  0  0  0  0  0  0  0  0  0
    5.7367   -1.0913    1.6075 C   0  0  0  0  0  0  0  0  0  0  0  0
    7.0250   -1.4678    2.2700 C   0  0  0  0  0  0  0  0  0  0  0  0
    2.8575    1.2075   -1.7547 H   0  0  0  0  0  0  0  0  0  0  0  0
    0.7589   -1.1056    1.2062 H   0  0  0  0  0  0  0  0  0  0  0  0
    0.6884    1.8673   -2.7362 H   0  0  0  0  0  0  0  0  0  0  0  0
   -1.3888   -0.2860    0.3288 H   0  0  0  0  0  0  0  0  0  0  0  0
   -1.8915    2.3079   -0.4453 H   0  0  0  0  0  0  0  0  0  0  0  0
   -3.3464   -1.0008   -2.3471 H   0  0  0  0  0  0  0  0  0  0  0  0
   -4.7904    2.8487   -1.1753 H   0  0  0  0  0  0  0  0  0  0  0  0
   -4.5938   -2.0661   -0.4696 H   0  0  0  0  0  0  0  0  0  0  0  0
   -6.2957    1.7885    0.4776 H   0  0  0  0  0  0  0  0  0  0  0  0
   -6.1445   -0.3480    2.2051 H   0  0  0  0  0  0  0  0  0  0  0  0
   -7.4247   -0.6280    1.0042 H   0  0  0  0  0  0  0  0  0  0  0  0
   -6.2315   -1.8889    1.3433 H   0  0  0  0  0  0  0  0  0  0  0  0
    3.5221   -1.9997   -0.7873 H   0  0  0  0  0  0  0  0  0  0  0  0
    3.4150    1.4231    1.8284 H   0  0  0  0  0  0  0  0  0  0  0  0
    5.6265   -2.7247    0.2451 H   0  0  0  0  0  0  0  0  0  0  0  0
    5.5322    0.7106    2.8511 H   0  0  0  0  0  0  0  0  0  0  0  0
    7.4277   -2.4051    1.8707 H   0  0  0  0  0  0  0  0  0  0  0  0
    6.8820   -1.6009    3.3477 H   0  0  0  0  0  0  0  0  0  0  0  0
    7.7803   -0.6890    2.1140 H   0  0  0  0  0  0  0  0  0  0  0  0
  1  2  1  0
  3  1  2  0
  1  4  1  0
  5  3  1  0
  4  6  2  0
  7  5  2  0
  6  7  1  0
  8  7  1  0
  9  8  1  0
  9 10  1  0
  9 11  2  0
 10 12  2  0
 13 10  1  0
 12 14  1  0
 15 13  2  0
 14 16  2  0
 16 15  1  0
 16 17  1  0
  2 18  2  0
 19  2  1  0
 18 20  1  0
 21 19  2  0
 20 22  2  0
 22 21  1  0
 22 23  1  0
  3 24  1  0
  4 25  1  0
  5 26  1  0
  6 27  1  0
  8 28  1  0
 12 29  1  0
 13 30  1  0
 14 31  1  0
 15 32  1  0
 17 33  1  0
 17 34  1  0
 17 35  1  0
 18 36  1  0
 19 37  1  0
 20 38  1  0
 21 39  1  0
 23 40  1  0
 23 41  1  0
 23 42  1  0
M  END
$$$$

     RDKit          3D

 39 41  0  0  0  0  0  0  0  0999 V2000
    2.5194    0.0921   -0.1982 C   0  0  0  0  0  0  0  0  0  0  0  0
    3.8580   -0.4716   -0.0043 C   0  0  0  0  0  0  0  0  0  0  0  0
    1.4527   -0.5075    0.3789 C   0  0  0  0  0  0  0  0  0  0  0  0
    2.2821    1.3131   -0.9766 C   0  0  0  0  0  0  0  0  0  0  0  0
    0.1219    0.0708    0.2761 C   0  0  0  0  0  0  0  0  0  0  0  0
    1.0591    1.8700   -1.0332 C   0  0  0  0  0  0  0  0  0  0  0  0
   -0.0486    1.2688   -0.3120 C   0  0  0  0  0  0  0  0  0  0  0  0
   -1.0989    2.0818    0.0176 N   0  0  0  0  0  0  0  0  0  0  0  0
   -2.1812    2.2531   -0.8134 C   0  0  0  0  0  0  0  0  0  0  0  0
   -3.3044    1.3267   -0.5216 C   0  0  0  0  0  0  0  0  0  0  0  0
   -2.2566    3.1065   -1.6887 O   0  0  0  0  0  0  0  0  0  0  0  0
   -4.1744    1.6648    0.4489 C   0  0  0  0  0  0  0  0  0  0  0  0
   -3.3621    0.0025   -1.1188 C   0  0  0  0  0  0  0  0  0  0  0  0
   -4.9548    0.6239    1.0997 C   0  0  0  0  0  0  0  0  0  0  0  0
   -4.1429   -0.9433   -0.5656 C   0  0  0  0  0  0  0  0  0  0  0  0
   -4.9473   -0.6360    0.6161 C   0  0  0  0  0  0  0  0  0  0  0  0
   -5.7400   -1.7541    1.2193 C   0  0  0  0  0  0  0  0  0  0  0  0
    4.3356   -1.3217   -0.9441 C   0  0  0  0  0  0  0  0  0  0  0  0
    4.7915   -0.0472    1.0541 C   0  0  0  0  0  0  0  0  0  0  0  0
    5.7654   -1.5131   -1.1173 C   0  0  0  0  0  0  0  0  0  0  0  0
    6.1091   -0.3044    0.9475 C   0  0  0  0  0  0  0  0  0  0  0  0
    4.1859    0.7642    2.4546 Cl  0  0  0  0  0  0  0  0  0  0  0  0
    6.6211   -1.0225   -0.2054 C   0  0  0  0  0  0  0  0  0  0  0  0
    1.5468   -1.4495    0.9109 H   0  0  0  0  0  0  0  0  0  0  0  0
    3.1182    1.7515   -1.5121 H   0  0  0  0  0  0  0  0  0  0  0  0
   -0.7177   -0.5186    0.6287 H   0  0  0  0  0  0  0  0  0  0  0  0
    0.8736    2.7658   -1.6179 H   0  0  0  0  0  0  0  0  0  0  0  0
   -1.2304    2.2972    0.9974 H   0  0  0  0  0  0  0  0  0  0  0  0
   -4.4078    2.7015    0.6698 H   0  0  0  0  0  0  0  0  0  0  0  0
   -2.7704   -0.1916   -2.0073 H   0  0  0  0  0  0  0  0  0  0  0  0
   -5.5536    0.9036    1.9608 H   0  0  0  0  0  0  0  0  0  0  0  0
   -4.2023   -1.9374   -0.9978 H   0  0  0  0  0  0  0  0  0  0  0  0
   -6.4543   -2.1557    0.4927 H   0  0  0  0  0  0  0  0  0  0  0  0
   -5.0777   -2.5651    1.5405 H   0  0  0  0  0  0  0  0  0  0  0  0
   -6.3080   -1.4231    2.0953 H   0  0  0  0  0  0  0  0  0  0  0  0
    3.6714   -1.8755   -1.6013 H   0  0  0  0  0  0  0  0  0  0  0  0
    6.1138   -2.0632   -1.9852 H   0  0  0  0  0  0  0  0  0  0  0  0
    6.8144   -0.0028    1.7144 H   0  0  0  0  0  0  0  0  0  0  0  0
    7.6934   -1.1556   -0.3023 H   0  0  0  0  0  0  0  0  0  0  0  0
  1  2  1  0
  3  1  2  0
  1  4  1  0
  5  3  1  0
  4  6  2  0
  7  5  2  0
  6  7  1  0
  8  7  1  0
  9  8  1  0
  9 10  1  0
  9 11  2  0
 10 12  2  0
 13 10  1  0
 12 14  1  0
 15 13  2  0
 14 16  2  0
 16 15  1  0
 16 17  1  0
  2 18  2  0
 19  2  1  0
 18 20  1  0
 21 19  2  0
 19 22  1  0
 20 23  2  0
 23 21  1  0
  3 24  1  0
  4 25  1  0
  5 26  1  0
  6 27  1  0
  8 28  1  0
 12 29  1  0
 13 30  1  0
 14 31  1  0
 15 32  1  0
 17 33  1  0
 17 34  1  0
 17 35  1  0
 18 36  1  0
 20 37  1  0
 21 38  1  0
 23 39  1  0
M  END
$$$$

     RDKit          3D

 39 41  0  0  0  0  0  0  0  0999 V2000
   -2.4526   -0.0462    0.3581 C   0  0  0  0  0  0  0  0  0  0  0  0
   -3.7759   -0.6703    0.2840 C   0  0  0  0  0  0  0  0  0  0  0  0
   -1.3568   -0.7626    0.0169 C   0  0  0  0  0  0  0  0  0  0  0  0
   -2.2584    1.3576    0.7371 C   0  0  0  0  0  0  0  0  0  0  0  0
   -0.0761   -0.1059   -0.2030 C   0  0  0  0  0  0  0  0  0  0  0  0
   -1.0739    1.9643    0.5411 C   0  0  0  0  0  0  0  0  0  0  0  0
    0.0313    1.2263   -0.0447 C   0  0  0  0  0  0  0  0  0  0  0  0
    1.0002    1.9474   -0.6909 N   0  0  0  0  0  0  0  0  0  0  0  0
    2.0951    2.4472   -0.0224 C   0  0  0  0  0  0  0  0  0  0  0  0
    3.2676    1.5354   -0.0388 C   0  0  0  0  0  0  0  0  0  0  0  0
    2.1429    3.5547    0.4984 O   0  0  0  0  0  0  0  0  0  0  0  0
    3.4135    0.6701    0.9822 C   0  0  0  0  0  0  0  0  0  0  0  0
    4.1073    1.4107   -1.2197 C   0  0  0  0  0  0  0  0  0  0  0  0
    4.1738   -0.5523    0.7777 C   0  0  0  0  0  0  0  0  0  0  0  0
    4.8738    0.3159   -1.3773 C   0  0  0  0  0  0  0  0  0  0  0  0
    4.8804   -0.7323   -0.3577 C   0  0  0  0  0  0  0  0  0  0  0  0
    5.6994   -1.9557   -0.6317 C   0  0  0  0  0  0  0  0  0  0  0  0
   -4.4830   -0.5344   -0.8628 C   0  0  0  0  0  0  0  0  0  0  0  0
   -4.4621   -1.2966    1.4283 C   0  0  0  0  0  0  0  0  0  0  0  0
   -5.9302   -0.6732   -0.8661 C   0  0  0  0  0  0  0  0  0  0  0  0
   -5.7916   -1.5088    1.4005 C   0  0  0  0  0  0  0  0  0  0  0  0
   -3.5457   -1.7832    2.8105 Cl  0  0  0  0  0  0  0  0  0  0  0  0
   -6.5577   -1.1425    0.2251 C   0  0  0  0  0  0  0  0  0  0  0  0
   -8.2658   -1.3411    0.2584 Cl  0  0  0  0  0  0  0  0  0  0  0  0
   -1.3557   -1.8481    0.0610 H   0  0  0  0  0  0  0  0  0  0  0  0
   -3.0893    1.8900    1.1887 H   0  0  0  0  0  0  0  0  0  0  0  0
    0.8018   -0.7362   -0.3032 H   0  0  0  0  0  0  0  0  0  0  0  0
   -0.9135    2.9981    0.8313 H   0  0  0  0  0  0  0  0  0  0  0  0
    1.1198    1.7673   -1.6794 H   0  0  0  0  0  0  0  0  0  0  0  0
    3.0263    0.8853    1.9731 H   0  0  0  0  0  0  0  0  0  0  0  0
    4.1108    2.2176   -1.9445 H   0  0  0  0  0  0  0  0  0  0  0  0
    4.1631   -1.2927    1.5714 H   0  0  0  0  0  0  0  0  0  0  0  0
    5.5163    0.2064   -2.2455 H   0  0  0  0  0  0  0  0  0  0  0  0
    6.7530   -1.6910   -0.7707 H   0  0  0  0  0  0  0  0  0  0  0  0
    5.6437   -2.6750    0.1924 H   0  0  0  0  0  0  0  0  0  0  0  0
    5.3453   -2.4602   -1.5370 H   0  0  0  0  0  0  0  0  0  0  0  0
   -3.9976   -0.3079   -1.8081 H   0  0  0  0  0  0  0  0  0  0  0  0
   -6.4699   -0.4000   -1.7668 H   0  0  0  0  0  0  0  0  0  0  0  0
   -6.3097   -1.9699    2.2344 H   0  0  0  0  0  0  0  0  0  0  0  0
  1  2  1  0
  3  1  2  0
  1  4  1  0
  5  3  1  0
  4  6  2  0
  7  5  2  0
  6  7  1  0
  8  7  1  0
  9  8  1  0
  9 10  1  0
  9 11  2  0
 10 12  2  0
 13 10  1  0
 12 14  1  0
 15 13  2  0
 14 16  2  0
 16 15  1  0
 16 17  1  0
  2 18  2  0
 19  2  1  0
 18 20  1  0
 21 19  2  0
 19 22  1  0
 20 23  2  0
 23 21  1  0
 23 24  1  0
  3 25  1  0
  4 26  1  0
  5 27  1  0
  6 28  1  0
  8 29  1  0
 12 30  1  0
 13 31  1  0
 14 32  1  0
 15 33  1  0
 17 34  1  0
 17 35  1  0
 17 36  1  0
 18 37  1  0
 20 38  1  0
 21 39  1  0
M  END
$$$$

     RDKit          3D

 39 41  0  0  0  0  0  0  0  0999 V2000
   -2.6361   -0.2680    0.0659 C   0  0  0  0  0  0  0  0  0  0  0  0
   -4.0145   -0.1745   -0.4113 C   0  0  0  0  0  0  0  0  0  0  0  0
   -1.6254   -0.4083   -0.8260 C   0  0  0  0  0  0  0  0  0  0  0  0
   -2.2635   -0.0818    1.4763 C   0  0  0  0  0  0  0  0  0  0  0  0
   -0.2755    0.0055   -0.4777 C   0  0  0  0  0  0  0  0  0  0  0  0
   -1.0134    0.2925    1.7984 C   0  0  0  0  0  0  0  0  0  0  0  0
   -0.0317    0.5185    0.7428 C   0  0  0  0  0  0  0  0  0  0  0  0
    0.7778    1.6222    0.8602 N   0  0  0  0  0  0  0  0  0  0  0  0
    1.9306    1.5605    1.6124 C   0  0  0  0  0  0  0  0  0  0  0  0
    3.0993    0.9339    0.9316 C   0  0  0  0  0  0  0  0  0  0  0  0
    1.9988    2.0123    2.7531 O   0  0  0  0  0  0  0  0  0  0  0  0
    3.4524    1.3138   -0.3134 C   0  0  0  0  0  0  0  0  0  0  0  0
    3.9005   -0.0557    1.6341 C   0  0  0  0  0  0  0  0  0  0  0  0
    4.6183    0.7220   -0.9545 C   0  0  0  0  0  0  0  0  0  0  0  0
    4.9742   -0.6111    1.0377 C   0  0  0  0  0  0  0  0  0  0  0  0
    5.3625   -0.1998   -0.3106 C   0  0  0  0  0  0  0  0  0  0  0  0
    6.5913   -0.8212   -0.8972 C   0  0  0  0  0  0  0  0  0  0  0  0
   -4.5589    1.0442   -0.6233 C   0  0  0  0  0  0  0  0  0  0  0  0
   -4.8517   -1.3541   -0.6586 C   0  0  0  0  0  0  0  0  0  0  0  0
   -5.9327    1.1791   -1.0882 C   0  0  0  0  0  0  0  0  0  0  0  0
   -6.1204   -1.2272   -1.0926 C   0  0  0  0  0  0  0  0  0  0  0  0
   -6.6776    0.0880   -1.3254 C   0  0  0  0  0  0  0  0  0  0  0  0
   -8.3056    0.2153   -1.8635 Cl  0  0  0  0  0  0  0  0  0  0  0  0
   -1.7715   -0.8965   -1.7827 H   0  0  0  0  0  0  0  0  0  0  0  0
   -3.0099   -0.2751    2.2370 H   0  0  0  0  0  0  0  0  0  0  0  0
    0.5241   -0.2268   -1.1660 H   0  0  0  0  0  0  0  0  0  0  0  0
   -0.7098    0.3995    2.8348 H   0  0  0  0  0  0  0  0  0  0  0  0
    0.2662    2.4732    1.0743 H   0  0  0  0  0  0  0  0  0  0  0  0
    2.9168    2.0911   -0.8518 H   0  0  0  0  0  0  0  0  0  0  0  0
    3.6174   -0.3183    2.6457 H   0  0  0  0  0  0  0  0  0  0  0  0
    4.8771    1.0739   -1.9484 H   0  0  0  0  0  0  0  0  0  0  0  0
    5.5846   -1.3415    1.5595 H   0  0  0  0  0  0  0  0  0  0  0  0
    6.5330   -1.9221   -0.8519 H   0  0  0  0  0  0  0  0  0  0  0  0
    7.4913   -0.4958   -0.3344 H   0  0  0  0  0  0  0  0  0  0  0  0
    6.7296   -0.5361   -1.9501 H   0  0  0  0  0  0  0  0  0  0  0  0
   -3.9743    1.9569   -0.5046 H   0  0  0  0  0  0  0  0  0  0  0  0
   -4.4161   -2.3358   -0.4923 H   0  0  0  0  0  0  0  0  0  0  0  0
   -6.3216    2.1779   -1.2422 H   0  0  0  0  0  0  0  0  0  0  0  0
   -6.7355   -2.0982   -1.2970 H   0  0  0  0  0  0  0  0  0  0  0  0
  1  2  1  0
  3  1  2  0
  1  4  1  0
  5  3  1  0
  4  6  2  0
  7  5  2  0
  6  7  1  0
  8  7  1  0
  9  8  1  0
  9 10  1  0
  9 11  2  0
 10 12  2  0
 13 10  1  0
 12 14  1  0
 15 13  2  0
 14 16  2  0
 16 15  1  0
 16 17  1  0
  2 18  2  0
 19  2  1  0
 18 20  1  0
 21 19  2  0
 20 22  2  0
 22 21  1  0
 22 23  1  0
  3 24  1  0
  4 25  1  0
  5 26  1  0
  6 27  1  0
  8 28  1  0
 12 29  1  0
 13 30  1  0
 14 31  1  0
 15 32  1  0
 17 33  1  0
 17 34  1  0
 17 35  1  0
 18 36  1  0
 19 37  1  0
 20 38  1  0
 21 39  1  0
M  END
$$$$

     RDKit          3D

 40 42  0  0  0  0  0  0  0  0999 V2000
   -2.3808   -0.0305    0.3707 C   0  0  0  0  0  0  0  0  0  0  0  0
   -3.6742   -0.6705    0.6211 C   0  0  0  0  0  0  0  0  0  0  0  0
   -1.2424   -0.6938    0.6765 C   0  0  0  0  0  0  0  0  0  0  0  0
   -2.2499    1.2278   -0.3716 C   0  0  0  0  0  0  0  0  0  0  0  0
   -0.0018   -0.3899   -0.0206 C   0  0  0  0  0  0  0  0  0  0  0  0
   -1.0887    1.5500   -0.9702 C   0  0  0  0  0  0  0  0  0  0  0  0
    0.0516    0.6525   -0.8697 C   0  0  0  0  0  0  0  0  0  0  0  0
    1.0230    0.7190   -1.8401 N   0  0  0  0  0  0  0  0  0  0  0  0
    2.0026    1.6849   -1.7655 C   0  0  0  0  0  0  0  0  0  0  0  0
    3.1830    1.2849   -0.9600 C   0  0  0  0  0  0  0  0  0  0  0  0
    1.9341    2.7589   -2.3505 O   0  0  0  0  0  0  0  0  0  0  0  0
    4.1363    0.5346   -1.5444 C   0  0  0  0  0  0  0  0  0  0  0  0
    3.2502    1.5665    0.4654 C   0  0  0  0  0  0  0  0  0  0  0  0
    5.0905   -0.1842   -0.7149 C   0  0  0  0  0  0  0  0  0  0  0  0
    4.1693    0.9447    1.2259 C   0  0  0  0  0  0  0  0  0  0  0  0
    5.1143    0.0071    0.6207 C   0  0  0  0  0  0  0  0  0  0  0  0
    6.0763   -0.6881    1.5339 C   0  0  0  0  0  0  0  0  0  0  0  0
   -4.3113   -0.3794    1.7783 C   0  0  0  0  0  0  0  0  0  0  0  0
   -4.3931   -1.5052   -0.3632 C   0  0  0  0  0  0  0  0  0  0  0  0
   -5.7394   -0.6087    1.9266 C   0  0  0  0  0  0  0  0  0  0  0  0
   -5.7014   -1.7948   -0.1933 C   0  0  0  0  0  0  0  0  0  0  0  0
   -3.6747   -1.9766   -1.4467 O   0  0  0  0  0  0  0  0  0  0  0  0
   -6.5754    0.0391    3.4608 Br  0  0  0  0  0  0  0  0  0  0  0  0
   -6.4044   -1.2924    0.9791 C   0  0  0  0  0  0  0  0  0  0  0  0
   -6.6932   -2.8324   -1.3911 Br  0  0  0  0  0  0  0  0  0  0  0  0
   -1.1893   -1.3798    1.5176 H   0  0  0  0  0  0  0  0  0  0  0  0
   -3.1075    1.8921   -0.4177 H   0  0  0  0  0  0  0  0  0  0  0  0
    0.8990   -0.9123    0.2881 H   0  0  0  0  0  0  0  0  0  0  0  0
   -0.9740    2.4874   -1.5068 H   0  0  0  0  0  0  0  0  0  0  0  0
    0.6558    0.6539   -2.7832 H   0  0  0  0  0  0  0  0  0  0  0  0
    4.2584    0.4990   -2.6223 H   0  0  0  0  0  0  0  0  0  0  0  0
    2.5524    2.2833    0.8851 H   0  0  0  0  0  0  0  0  0  0  0  0
    5.7828   -0.8580   -1.2103 H   0  0  0  0  0  0  0  0  0  0  0  0
    4.2371    1.1435    2.2906 H   0  0  0  0  0  0  0  0  0  0  0  0
    6.7048    0.0391    2.0584 H   0  0  0  0  0  0  0  0  0  0  0  0
    6.7396   -1.3649    0.9845 H   0  0  0  0  0  0  0  0  0  0  0  0
    5.5388   -1.2841    2.2801 H   0  0  0  0  0  0  0  0  0  0  0  0
   -3.7648    0.0017    2.6367 H   0  0  0  0  0  0  0  0  0  0  0  0
   -2.7655   -1.6377   -1.3969 H   0  0  0  0  0  0  0  0  0  0  0  0
   -7.4682   -1.4867    1.0697 H   0  0  0  0  0  0  0  0  0  0  0  0
  1  2  1  0
  3  1  2  0
  1  4  1  0
  5  3  1  0
  4  6  2  0
  7  5  2  0
  6  7  1  0
  8  7  1  0
  9  8  1  0
  9 10  1  0
  9 11  2  0
 10 12  2  0
 13 10  1  0
 12 14  1  0
 15 13  2  0
 14 16  2  0
 16 15  1  0
 16 17  1  0
  2 18  2  0
 19  2  1  0
 18 20  1  0
 21 19  2  0
 19 22  1  0
 20 23  1  0
 20 24  2  0
 24 21  1  0
 21 25  1  0
  3 26  1  0
  4 27  1  0
  5 28  1  0
  6 29  1  0
  8 30  1  0
 12 31  1  0
 13 32  1  0
 14 33  1  0
 15 34  1  0
 17 35  1  0
 17 36  1  0
 17 37  1  0
 18 38  1  0
 22 39  1  0
 24 40  1  0
M  END
$$$$

     RDKit          3D

 39 41  0  0  0  0  0  0  0  0999 V2000
   -2.5435    0.3676   -0.0964 C   0  0  0  0  0  0  0  0  0  0  0  0
   -3.9385    0.3230   -0.5302 C   0  0  0  0  0  0  0  0  0  0  0  0
   -1.5773   -0.1247   -0.9045 C   0  0  0  0  0  0  0  0  0  0  0  0
   -2.1380    0.8575    1.2269 C   0  0  0  0  0  0  0  0  0  0  0  0
   -0.2458   -0.3996   -0.3848 C   0  0  0  0  0  0  0  0  0  0  0  0
   -0.9154    0.5806    1.7155 C   0  0  0  0  0  0  0  0  0  0  0  0
    0.0167   -0.2060    0.9208 C   0  0  0  0  0  0  0  0  0  0  0  0
    0.9013   -1.0276    1.5805 N   0  0  0  0  0  0  0  0  0  0  0  0
    2.0438   -0.5040    2.1391 C   0  0  0  0  0  0  0  0  0  0  0  0
    3.1767   -0.3761    1.1901 C   0  0  0  0  0  0  0  0  0  0  0  0
    2.1410   -0.2272    3.3287 O   0  0  0  0  0  0  0  0  0  0  0  0
    3.4820    0.8496    0.7219 C   0  0  0  0  0  0  0  0  0  0  0  0
    3.9394   -1.5376    0.7583 C   0  0  0  0  0  0  0  0  0  0  0  0
    4.5136    0.9972   -0.2928 C   0  0  0  0  0  0  0  0  0  0  0  0
    4.9090   -1.3953   -0.1628 C   0  0  0  0  0  0  0  0  0  0  0  0
    5.2058   -0.0783   -0.7257 C   0  0  0  0  0  0  0  0  0  0  0  0
    6.2850    0.0023   -1.7602 C   0  0  0  0  0  0  0  0  0  0  0  0
   -4.7203   -0.7119   -0.1483 C   0  0  0  0  0  0  0  0  0  0  0  0
   -4.5516    1.3841   -1.3346 C   0  0  0  0  0  0  0  0  0  0  0  0
   -6.1388   -0.7412   -0.4690 C   0  0  0  0  0  0  0  0  0  0  0  0
   -5.8596    1.3491   -1.6484 C   0  0  0  0  0  0  0  0  0  0  0  0
   -6.6915    0.2451   -1.1971 C   0  0  0  0  0  0  0  0  0  0  0  0
   -8.4970    0.2576   -1.6558 Br  0  0  0  0  0  0  0  0  0  0  0  0
   -1.7302   -0.2335   -1.9740 H   0  0  0  0  0  0  0  0  0  0  0  0
   -2.8434    1.4604    1.7894 H   0  0  0  0  0  0  0  0  0  0  0  0
    0.5398   -0.6581   -1.0873 H   0  0  0  0  0  0  0  0  0  0  0  0
   -0.5956    0.9559    2.6824 H   0  0  0  0  0  0  0  0  0  0  0  0
    0.4482   -1.6654    2.2253 H   0  0  0  0  0  0  0  0  0  0  0  0
    3.0441    1.7493    1.1429 H   0  0  0  0  0  0  0  0  0  0  0  0
    3.7076   -2.5041    1.1918 H   0  0  0  0  0  0  0  0  0  0  0  0
    4.7083    1.9964   -0.6728 H   0  0  0  0  0  0  0  0  0  0  0  0
    5.4892   -2.2505   -0.4979 H   0  0  0  0  0  0  0  0  0  0  0  0
    6.4196    1.0267   -2.1256 H   0  0  0  0  0  0  0  0  0  0  0  0
    7.2428   -0.3322   -1.3489 H   0  0  0  0  0  0  0  0  0  0  0  0
    6.0368   -0.6269   -2.6231 H   0  0  0  0  0  0  0  0  0  0  0  0
   -4.3137   -1.5633    0.3909 H   0  0  0  0  0  0  0  0  0  0  0  0
   -3.9206    2.2032   -1.6638 H   0  0  0  0  0  0  0  0  0  0  0  0
   -6.7211   -1.5850   -0.1123 H   0  0  0  0  0  0  0  0  0  0  0  0
   -6.3089    2.1428   -2.2366 H   0  0  0  0  0  0  0  0  0  0  0  0
  1  2  1  0
  3  1  2  0
  1  4  1  0
  5  3  1  0
  4  6  2  0
  7  5  2  0
  6  7  1  0
  8  7  1  0
  9  8  1  0
  9 10  1  0
  9 11  2  0
 10 12  2  0
 13 10  1  0
 12 14  1  0
 15 13  2  0
 14 16  2  0
 16 15  1  0
 16 17  1  0
  2 18  2  0
 19  2  1  0
 18 20  1  0
 21 19  2  0
 20 22  2  0
 22 21  1  0
 22 23  1  0
  3 24  1  0
  4 25  1  0
  5 26  1  0
  6 27  1  0
  8 28  1  0
 12 29  1  0
 13 30  1  0
 14 31  1  0
 15 32  1  0
 17 33  1  0
 17 34  1  0
 17 35  1  0
 18 36  1  0
 19 37  1  0
 20 38  1  0
 21 39  1  0
M  END
$$$$

     RDKit          3D

 40 42  0  0  0  0  0  0  0  0999 V2000
   -2.6226   -0.0584    0.3405 C   0  0  0  0  0  0  0  0  0  0  0  0
   -3.9052   -0.6972    0.6435 C   0  0  0  0  0  0  0  0  0  0  0  0
   -2.4150    1.2286    0.7154 C   0  0  0  0  0  0  0  0  0  0  0  0
   -1.5154   -0.7682   -0.3092 C   0  0  0  0  0  0  0  0  0  0  0  0
   -1.0997    1.8473    0.5739 C   0  0  0  0  0  0  0  0  0  0  0  0
   -0.2863   -0.2210   -0.3684 C   0  0  0  0  0  0  0  0  0  0  0  0
   -0.0472    1.0937    0.2055 C   0  0  0  0  0  0  0  0  0  0  0  0
    1.2179    1.3571    0.6748 N   0  0  0  0  0  0  0  0  0  0  0  0
    2.0272    2.2466   -0.0001 C   0  0  0  0  0  0  0  0  0  0  0  0
    3.2818    1.6296   -0.4877 C   0  0  0  0  0  0  0  0  0  0  0  0
    1.7968    3.4429   -0.1285 O   0  0  0  0  0  0  0  0  0  0  0  0
    4.3881    1.7937    0.2600 C   0  0  0  0  0  0  0  0  0  0  0  0
    3.2928    0.6949   -1.6034 C   0  0  0  0  0  0  0  0  0  0  0  0
    5.4811    0.8405    0.1388 C   0  0  0  0  0  0  0  0  0  0  0  0
    4.3338   -0.1478   -1.7598 C   0  0  0  0  0  0  0  0  0  0  0  0
    5.4621   -0.1015   -0.8292 C   0  0  0  0  0  0  0  0  0  0  0  0
    6.5598   -1.1024   -1.0281 C   0  0  0  0  0  0  0  0  0  0  0  0
   -3.9789   -1.5220    1.7158 C   0  0  0  0  0  0  0  0  0  0  0  0
   -5.0957   -0.5940   -0.2151 C   0  0  0  0  0  0  0  0  0  0  0  0
   -5.1370   -2.3696    1.9407 C   0  0  0  0  0  0  0  0  0  0  0  0
   -6.1846   -1.3527    0.0154 C   0  0  0  0  0  0  0  0  0  0  0  0
   -5.0229    0.3235   -1.2399 O   0  0  0  0  0  0  0  0  0  0  0  0
   -6.1968   -2.2897    1.1235 C   0  0  0  0  0  0  0  0  0  0  0  0
   -3.2564    1.9162    0.7882 H   0  0  0  0  0  0  0  0  0  0  0  0
   -1.7206   -1.7476   -0.7388 H   0  0  0  0  0  0  0  0  0  0  0  0
   -1.0734    2.9241    0.4296 H   0  0  0  0  0  0  0  0  0  0  0  0
    0.5314   -0.7389   -0.8537 H   0  0  0  0  0  0  0  0  0  0  0  0
    1.2621    1.4889    1.6826 H   0  0  0  0  0  0  0  0  0  0  0  0
    4.5616    2.7196    0.8074 H   0  0  0  0  0  0  0  0  0  0  0  0
    2.4538    0.7058   -2.2996 H   0  0  0  0  0  0  0  0  0  0  0  0
    6.3139    0.9417    0.8278 H   0  0  0  0  0  0  0  0  0  0  0  0
    4.3657   -0.8515   -2.5859 H   0  0  0  0  0  0  0  0  0  0  0  0
    7.3436   -1.0015   -0.2691 H   0  0  0  0  0  0  0  0  0  0  0  0
    6.1674   -2.1208   -0.9597 H   0  0  0  0  0  0  0  0  0  0  0  0
    7.0232   -0.9731   -2.0086 H   0  0  0  0  0  0  0  0  0  0  0  0
   -3.1597   -1.6002    2.4232 H   0  0  0  0  0  0  0  0  0  0  0  0
   -5.1230   -3.0511    2.7846 H   0  0  0  0  0  0  0  0  0  0  0  0
   -7.0695   -1.3035   -0.6066 H   0  0  0  0  0  0  0  0  0  0  0  0
   -5.8691    0.3162   -1.7205 H   0  0  0  0  0  0  0  0  0  0  0  0
   -7.0849   -2.8984    1.2781 H   0  0  0  0  0  0  0  0  0  0  0  0
  1  2  1  0
  3  1  2  0
  1  4  1  0
  5  3  1  0
  4  6  2  0
  7  5  2  0
  6  7  1  0
  8  7  1  0
  9  8  1  0
  9 10  1  0
  9 11  2  0
 10 12  2  0
 13 10  1  0
 12 14  1  0
 15 13  2  0
 14 16  2  0
 16 15  1  0
 16 17  1  0
  2 18  2  0
 19  2  1  0
 18 20  1  0
 21 19  2  0
 19 22  1  0
 20 23  2  0
 23 21  1  0
  3 24  1  0
  4 25  1  0
  5 26  1  0
  6 27  1  0
  8 28  1  0
 12 29  1  0
 13 30  1  0
 14 31  1  0
 15 32  1  0
 17 33  1  0
 17 34  1  0
 17 35  1  0
 18 36  1  0
 20 37  1  0
 21 38  1  0
 22 39  1  0
 23 40  1  0
M  END
$$$$

     RDKit          3D

 43 45  0  0  0  0  0  0  0  0999 V2000
   -1.9042   -0.2089    0.0930 C   0  0  0  0  0  0  0  0  0  0  0  0
   -3.2791    0.2485    0.3060 C   0  0  0  0  0  0  0  0  0  0  0  0
   -0.9719    0.6617   -0.3591 C   0  0  0  0  0  0  0  0  0  0  0  0
   -1.4858   -1.5929    0.3443 C   0  0  0  0  0  0  0  0  0  0  0  0
    0.3766    0.2126   -0.6691 C   0  0  0  0  0  0  0  0  0  0  0  0
   -0.2639   -2.0199   -0.0222 C   0  0  0  0  0  0  0  0  0  0  0  0
    0.6572   -1.1021   -0.6748 C   0  0  0  0  0  0  0  0  0  0  0  0
    1.5579   -1.6179   -1.5770 N   0  0  0  0  0  0  0  0  0  0  0  0
    2.7010   -2.2394   -1.1270 C   0  0  0  0  0  0  0  0  0  0  0  0
    3.8362   -1.3126   -0.8958 C   0  0  0  0  0  0  0  0  0  0  0  0
    2.7950   -3.4521   -0.9831 O   0  0  0  0  0  0  0  0  0  0  0  0
    4.0806   -0.8978    0.3615 C   0  0  0  0  0  0  0  0  0  0  0  0
    4.6613   -0.8397   -1.9947 C   0  0  0  0  0  0  0  0  0  0  0  0
    5.0705    0.1406    0.5957 C   0  0  0  0  0  0  0  0  0  0  0  0
    5.6055    0.0910   -1.7692 C   0  0  0  0  0  0  0  0  0  0  0  0
    5.8123    0.6200   -0.4244 C   0  0  0  0  0  0  0  0  0  0  0  0
    6.8608    1.6748   -0.2536 C   0  0  0  0  0  0  0  0  0  0  0  0
   -4.1679    0.0859   -0.7020 C   0  0  0  0  0  0  0  0  0  0  0  0
   -3.7809    0.8262    1.5655 C   0  0  0  0  0  0  0  0  0  0  0  0
   -5.5718    0.4260   -0.5403 C   0  0  0  0  0  0  0  0  0  0  0  0
   -5.0761    1.1540    1.7085 C   0  0  0  0  0  0  0  0  0  0  0  0
   -2.8940    1.0271    2.6033 O   0  0  0  0  0  0  0  0  0  0  0  0
   -6.0215    0.9421    0.6192 C   0  0  0  0  0  0  0  0  0  0  0  0
   -7.4509    1.3136    0.8614 C   0  0  0  0  0  0  0  0  0  0  0  0
   -1.1848    1.7206   -0.4712 H   0  0  0  0  0  0  0  0  0  0  0  0
   -2.1867   -2.2597    0.8379 H   0  0  0  0  0  0  0  0  0  0  0  0
    1.1449    0.9581   -0.8431 H   0  0  0  0  0  0  0  0  0  0  0  0
    0.0575   -3.0393    0.1706 H   0  0  0  0  0  0  0  0  0  0  0  0
    1.1174   -2.1631   -2.3104 H   0  0  0  0  0  0  0  0  0  0  0  0
    3.5934   -1.3507    1.2185 H   0  0  0  0  0  0  0  0  0  0  0  0
    4.4993   -1.2541   -2.9829 H   0  0  0  0  0  0  0  0  0  0  0  0
    5.1998    0.4930    1.6145 H   0  0  0  0  0  0  0  0  0  0  0  0
    6.2340    0.4522   -2.5783 H   0  0  0  0  0  0  0  0  0  0  0  0
    6.9201    2.0244    0.7825 H   0  0  0  0  0  0  0  0  0  0  0  0
    6.6405    2.5436   -0.8826 H   0  0  0  0  0  0  0  0  0  0  0  0
    7.8455    1.2858   -0.5312 H   0  0  0  0  0  0  0  0  0  0  0  0
   -3.8658   -0.3077   -1.6692 H   0  0  0  0  0  0  0  0  0  0  0  0
   -6.2343    0.2430   -1.3800 H   0  0  0  0  0  0  0  0  0  0  0  0
   -5.4326    1.5796    2.6405 H   0  0  0  0  0  0  0  0  0  0  0  0
   -2.0213    0.6989    2.3299 H   0  0  0  0  0  0  0  0  0  0  0  0
   -7.8775    0.6967    1.6591 H   0  0  0  0  0  0  0  0  0  0  0  0
   -7.5323    2.3648    1.1554 H   0  0  0  0  0  0  0  0  0  0  0  0
   -8.0639    1.1732   -0.0346 H   0  0  0  0  0  0  0  0  0  0  0  0
  1  2  1  0
  3  1  2  0
  1  4  1  0
  5  3  1  0
  4  6  2  0
  7  5  2  0
  6  7  1  0
  8  7  1  0
  9  8  1  0
  9 10  1  0
  9 11  2  0
 10 12  2  0
 13 10  1  0
 12 14  1  0
 15 13  2  0
 14 16  2  0
 16 15  1  0
 16 17  1  0
  2 18  2  0
 19  2  1  0
 18 20  1  0
 21 19  2  0
 19 22  1  0
 20 23  2  0
 23 21  1  0
 23 24  1  0
  3 25  1  0
  4 26  1  0
  5 27  1  0
  6 28  1  0
  8 29  1  0
 12 30  1  0
 13 31  1  0
 14 32  1  0
 15 33  1  0
 17 34  1  0
 17 35  1  0
 17 36  1  0
 18 37  1  0
 20 38  1  0
 21 39  1  0
 22 40  1  0
 24 41  1  0
 24 42  1  0
 24 43  1  0
M  END
$$$$

     RDKit          3D

 39 41  0  0  0  0  0  0  0  0999 V2000
   -2.5087   -0.1862   -0.4371 C   0  0  0  0  0  0  0  0  0  0  0  0
   -3.8299   -0.7326   -0.1289 C   0  0  0  0  0  0  0  0  0  0  0  0
   -2.4103    0.9630   -1.1430 C   0  0  0  0  0  0  0  0  0  0  0  0
   -1.2644   -0.8162    0.0221 C   0  0  0  0  0  0  0  0  0  0  0  0
   -1.1372    1.6529   -1.2643 C   0  0  0  0  0  0  0  0  0  0  0  0
   -0.0715   -0.2346   -0.1987 C   0  0  0  0  0  0  0  0  0  0  0  0
    0.0014    1.0268   -0.9197 C   0  0  0  0  0  0  0  0  0  0  0  0
    1.1945    1.3657   -1.5031 N   0  0  0  0  0  0  0  0  0  0  0  0
    2.0294    2.3050   -0.9395 C   0  0  0  0  0  0  0  0  0  0  0  0
    3.1656    1.7086   -0.1912 C   0  0  0  0  0  0  0  0  0  0  0  0
    1.9042    3.5163   -1.0690 O   0  0  0  0  0  0  0  0  0  0  0  0
    2.9997    1.4480    1.1195 C   0  0  0  0  0  0  0  0  0  0  0  0
    4.3332    1.1912   -0.8893 C   0  0  0  0  0  0  0  0  0  0  0  0
    3.7950    0.4040    1.7453 C   0  0  0  0  0  0  0  0  0  0  0  0
    5.1204    0.2829   -0.2845 C   0  0  0  0  0  0  0  0  0  0  0  0
    4.8193   -0.1648    1.0750 C   0  0  0  0  0  0  0  0  0  0  0  0
    5.6953   -1.2301    1.6601 C   0  0  0  0  0  0  0  0  0  0  0  0
   -4.5019   -0.2790    0.9557 C   0  0  0  0  0  0  0  0  0  0  0  0
   -4.4751   -1.7669   -0.9413 C   0  0  0  0  0  0  0  0  0  0  0  0
   -5.8483   -0.7431    1.2539 C   0  0  0  0  0  0  0  0  0  0  0  0
   -5.7086   -2.2158   -0.6591 C   0  0  0  0  0  0  0  0  0  0  0  0
   -3.8027   -2.2722   -1.9983 F   0  0  0  0  0  0  0  0  0  0  0  0
   -6.4295   -1.6752    0.4784 C   0  0  0  0  0  0  0  0  0  0  0  0
   -3.2713    1.4136   -1.6289 H   0  0  0  0  0  0  0  0  0  0  0  0
   -1.3347   -1.7616    0.5478 H   0  0  0  0  0  0  0  0  0  0  0  0
   -1.1338    2.6770   -1.6236 H   0  0  0  0  0  0  0  0  0  0  0  0
    0.8445   -0.6973    0.1516 H   0  0  0  0  0  0  0  0  0  0  0  0
    1.6306    0.6605   -2.0841 H   0  0  0  0  0  0  0  0  0  0  0  0
    2.3323    2.0402    1.7383 H   0  0  0  0  0  0  0  0  0  0  0  0
    4.5551    1.5630   -1.8844 H   0  0  0  0  0  0  0  0  0  0  0  0
    3.5466    0.1196    2.7631 H   0  0  0  0  0  0  0  0  0  0  0  0
    6.0014   -0.1103   -0.7831 H   0  0  0  0  0  0  0  0  0  0  0  0
    6.7403   -0.9020    1.6813 H   0  0  0  0  0  0  0  0  0  0  0  0
    5.6302   -2.1487    1.0688 H   0  0  0  0  0  0  0  0  0  0  0  0
    5.4039   -1.4759    2.6873 H   0  0  0  0  0  0  0  0  0  0  0  0
   -4.0505    0.4231    1.6518 H   0  0  0  0  0  0  0  0  0  0  0  0
   -6.3586   -0.3277    2.1179 H   0  0  0  0  0  0  0  0  0  0  0  0
   -6.1753   -2.9802   -1.2686 H   0  0  0  0  0  0  0  0  0  0  0  0
   -7.4306   -2.0409    0.6827 H   0  0  0  0  0  0  0  0  0  0  0  0
  1  2  1  0
  3  1  2  0
  1  4  1  0
  5  3  1  0
  4  6  2  0
  7  5  2  0
  6  7  1  0
  8  7  1  0
  9  8  1  0
  9 10  1  0
  9 11  2  0
 10 12  2  0
 13 10  1  0
 12 14  1  0
 15 13  2  0
 14 16  2  0
 16 15  1  0
 16 17  1  0
  2 18  2  0
 19  2  1  0
 18 20  1  0
 21 19  2  0
 19 22  1  0
 20 23  2  0
 23 21  1  0
  3 24  1  0
  4 25  1  0
  5 26  1  0
  6 27  1  0
  8 28  1  0
 12 29  1  0
 13 30  1  0
 14 31  1  0
 15 32  1  0
 17 33  1  0
 17 34  1  0
 17 35  1  0
 18 36  1  0
 20 37  1  0
 21 38  1  0
 23 39  1  0
M  END
$$$$

     RDKit          3D

 39 41  0  0  0  0  0  0  0  0999 V2000
    2.5258    0.2228   -0.2146 C   0  0  0  0  0  0  0  0  0  0  0  0
    3.8534   -0.1633    0.2616 C   0  0  0  0  0  0  0  0  0  0  0  0
    2.4036    0.8678   -1.3968 C   0  0  0  0  0  0  0  0  0  0  0  0
    1.3000   -0.0888    0.5286 C   0  0  0  0  0  0  0  0  0  0  0  0
    1.1011    1.2869   -1.8898 C   0  0  0  0  0  0  0  0  0  0  0  0
    0.0982    0.3239    0.0870 C   0  0  0  0  0  0  0  0  0  0  0  0
    0.0004    1.0929   -1.1424 C   0  0  0  0  0  0  0  0  0  0  0  0
   -1.1411    1.8172   -1.3626 N   0  0  0  0  0  0  0  0  0  0  0  0
   -2.0960    1.4027   -2.2638 C   0  0  0  0  0  0  0  0  0  0  0  0
   -3.2060    0.6375   -1.6407 C   0  0  0  0  0  0  0  0  0  0  0  0
   -2.0808    1.6608   -3.4608 O   0  0  0  0  0  0  0  0  0  0  0  0
   -4.2295    1.3281   -1.1032 C   0  0  0  0  0  0  0  0  0  0  0  0
   -3.0965   -0.7935   -1.4096 C   0  0  0  0  0  0  0  0  0  0  0  0
   -5.0268    0.7152   -0.0521 C   0  0  0  0  0  0  0  0  0  0  0  0
   -3.8871   -1.3815   -0.4933 C   0  0  0  0  0  0  0  0  0  0  0  0
   -4.8695   -0.5913    0.2475 C   0  0  0  0  0  0  0  0  0  0  0  0
   -5.6663   -1.2961    1.3013 C   0  0  0  0  0  0  0  0  0  0  0  0
    4.5313    0.6663    1.0890 C   0  0  0  0  0  0  0  0  0  0  0  0
    4.4666   -1.4551   -0.0771 C   0  0  0  0  0  0  0  0  0  0  0  0
    5.7913    0.2582    1.6902 C   0  0  0  0  0  0  0  0  0  0  0  0
    5.6422   -1.8241    0.4627 C   0  0  0  0  0  0  0  0  0  0  0  0
    6.3157   -0.9372    1.3833 C   0  0  0  0  0  0  0  0  0  0  0  0
    7.4828   -1.3384    1.9230 F   0  0  0  0  0  0  0  0  0  0  0  0
    3.2570    1.0327   -2.0480 H   0  0  0  0  0  0  0  0  0  0  0  0
    1.3907   -0.6715    1.4401 H   0  0  0  0  0  0  0  0  0  0  0  0
    1.0345    1.6753   -2.9016 H   0  0  0  0  0  0  0  0  0  0  0  0
   -0.8070    0.0762    0.6313 H   0  0  0  0  0  0  0  0  0  0  0  0
   -1.4634    2.4030   -0.6027 H   0  0  0  0  0  0  0  0  0  0  0  0
   -4.5624    2.2723   -1.5227 H   0  0  0  0  0  0  0  0  0  0  0  0
   -2.3729   -1.3584   -1.9881 H   0  0  0  0  0  0  0  0  0  0  0  0
   -5.7599    1.3352    0.4545 H   0  0  0  0  0  0  0  0  0  0  0  0
   -3.8223   -2.4490   -0.3065 H   0  0  0  0  0  0  0  0  0  0  0  0
   -6.2376   -2.1221    0.8645 H   0  0  0  0  0  0  0  0  0  0  0  0
   -6.3781   -0.6225    1.7905 H   0  0  0  0  0  0  0  0  0  0  0  0
   -5.0063   -1.7010    2.0759 H   0  0  0  0  0  0  0  0  0  0  0  0
    4.1670    1.6632    1.3204 H   0  0  0  0  0  0  0  0  0  0  0  0
    3.9435   -2.1024   -0.7741 H   0  0  0  0  0  0  0  0  0  0  0  0
    6.2925    0.9296    2.3766 H   0  0  0  0  0  0  0  0  0  0  0  0
    6.1117   -2.7716    0.2272 H   0  0  0  0  0  0  0  0  0  0  0  0
  1  2  1  0
  3  1  2  0
  1  4  1  0
  5  3  1  0
  4  6  2  0
  7  5  2  0
  6  7  1  0
  8  7  1  0
  9  8  1  0
  9 10  1  0
  9 11  2  0
 10 12  2  0
 13 10  1  0
 12 14  1  0
 15 13  2  0
 14 16  2  0
 16 15  1  0
 16 17  1  0
  2 18  2  0
 19  2  1  0
 18 20  1  0
 21 19  2  0
 20 22  2  0
 22 21  1  0
 22 23  1  0
  3 24  1  0
  4 25  1  0
  5 26  1  0
  6 27  1  0
  8 28  1  0
 12 29  1  0
 13 30  1  0
 14 31  1  0
 15 32  1  0
 17 33  1  0
 17 34  1  0
 17 35  1  0
 18 36  1  0
 19 37  1  0
 20 38  1  0
 21 39  1  0
M  END
$$$$

     RDKit          3D

 39 41  0  0  0  0  0  0  0  0999 V2000
    2.4533   -0.1454   -0.3594 C   0  0  0  0  0  0  0  0  0  0  0  0
    3.7270   -0.8637   -0.3763 C   0  0  0  0  0  0  0  0  0  0  0  0
    1.3245   -0.7811   -0.7477 C   0  0  0  0  0  0  0  0  0  0  0  0
    2.3489    1.2658    0.0273 C   0  0  0  0  0  0  0  0  0  0  0  0
    0.0528   -0.0787   -0.8118 C   0  0  0  0  0  0  0  0  0  0  0  0
    1.1805    1.9257   -0.0670 C   0  0  0  0  0  0  0  0  0  0  0  0
   -0.0018    1.2417   -0.5639 C   0  0  0  0  0  0  0  0  0  0  0  0
   -1.0581    1.9980   -1.0148 N   0  0  0  0  0  0  0  0  0  0  0  0
   -1.9180    2.5877   -0.1152 C   0  0  0  0  0  0  0  0  0  0  0  0
   -3.0174    1.7009    0.3393 C   0  0  0  0  0  0  0  0  0  0  0  0
   -1.8197    3.7549    0.2436 O   0  0  0  0  0  0  0  0  0  0  0  0
   -4.1266    1.6085   -0.4182 C   0  0  0  0  0  0  0  0  0  0  0  0
   -2.8718    0.8687    1.5229 C   0  0  0  0  0  0  0  0  0  0  0  0
   -5.0701    0.5277   -0.1780 C   0  0  0  0  0  0  0  0  0  0  0  0
   -3.7760   -0.0943    1.7776 C   0  0  0  0  0  0  0  0  0  0  0  0
   -4.9107   -0.2963    0.8785 C   0  0  0  0  0  0  0  0  0  0  0  0
   -5.8480   -1.4202    1.1948 C   0  0  0  0  0  0  0  0  0  0  0  0
    4.1636   -1.4721    0.7502 C   0  0  0  0  0  0  0  0  0  0  0  0
    4.5934   -0.9058   -1.5595 C   0  0  0  0  0  0  0  0  0  0  0  0
    5.4801   -2.0850    0.8098 C   0  0  0  0  0  0  0  0  0  0  0  0
    5.8040   -1.4892   -1.5109 C   0  0  0  0  0  0  0  0  0  0  0  0
    6.2689   -2.0935   -0.2776 C   0  0  0  0  0  0  0  0  0  0  0  0
    1.3163   -1.8464   -0.9595 H   0  0  0  0  0  0  0  0  0  0  0  0
    3.2398    1.7586    0.4035 H   0  0  0  0  0  0  0  0  0  0  0  0
   -0.8459   -0.6614   -0.9863 H   0  0  0  0  0  0  0  0  0  0  0  0
    1.0996    2.9644    0.2386 H   0  0  0  0  0  0  0  0  0  0  0  0
   -0.7992    2.6487   -1.7484 H   0  0  0  0  0  0  0  0  0  0  0  0
   -4.3785    2.3577   -1.1611 H   0  0  0  0  0  0  0  0  0  0  0  0
   -2.0287    1.0467    2.1820 H   0  0  0  0  0  0  0  0  0  0  0  0
   -5.9032    0.4225   -0.8654 H   0  0  0  0  0  0  0  0  0  0  0  0
   -3.6833   -0.7247    2.6562 H   0  0  0  0  0  0  0  0  0  0  0  0
   -6.6597   -1.4912    0.4629 H   0  0  0  0  0  0  0  0  0  0  0  0
   -5.3154   -2.3772    1.1930 H   0  0  0  0  0  0  0  0  0  0  0  0
   -6.3018   -1.2768    2.1811 H   0  0  0  0  0  0  0  0  0  0  0  0
    3.5486   -1.5234    1.6439 H   0  0  0  0  0  0  0  0  0  0  0  0
    4.2278   -0.4527   -2.4758 H   0  0  0  0  0  0  0  0  0  0  0  0
    5.8004   -2.5309    1.7452 H   0  0  0  0  0  0  0  0  0  0  0  0
    6.4500   -1.5231   -2.3812 H   0  0  0  0  0  0  0  0  0  0  0  0
    7.2547   -2.5454   -0.2595 H   0  0  0  0  0  0  0  0  0  0  0  0
  1  2  1  0
  3  1  2  0
  1  4  1  0
  5  3  1  0
  4  6  2  0
  7  5  2  0
  6  7  1  0
  8  7  1  0
  9  8  1  0
  9 10  1  0
  9 11  2  0
 10 12  2  0
 13 10  1  0
 12 14  1  0
 15 13  2  0
 14 16  2  0
 16 15  1  0
 16 17  1  0
  2 18  2  0
 19  2  1  0
 18 20  1  0
 21 19  2  0
 20 22  2  0
 22 21  1  0
  3 23  1  0
  4 24  1  0
  5 25  1  0
  6 26  1  0
  8 27  1  0
 12 28  1  0
 13 29  1  0
 14 30  1  0
 15 31  1  0
 17 32  1  0
 17 33  1  0
 17 34  1  0
 18 35  1  0
 19 36  1  0
 20 37  1  0
 21 38  1  0
 22 39  1  0
M  END
$$$$

     RDKit          3D

 39 41  0  0  0  0  0  0  0  0999 V2000
   -2.7926   -0.0902   -0.1226 C   0  0  0  0  0  0  0  0  0  0  0  0
   -4.1332    0.0939   -0.6751 C   0  0  0  0  0  0  0  0  0  0  0  0
   -1.7646   -0.4002   -0.9453 C   0  0  0  0  0  0  0  0  0  0  0  0
   -2.4865    0.1086    1.2988 C   0  0  0  0  0  0  0  0  0  0  0  0
   -0.3854   -0.2508   -0.5021 C   0  0  0  0  0  0  0  0  0  0  0  0
   -1.2122    0.2291    1.7137 C   0  0  0  0  0  0  0  0  0  0  0  0
   -0.1239    0.1759    0.7470 C   0  0  0  0  0  0  0  0  0  0  0  0
    0.9984    0.9287    1.0084 N   0  0  0  0  0  0  0  0  0  0  0  0
    1.9723    0.4310    1.8470 C   0  0  0  0  0  0  0  0  0  0  0  0
    3.2151    0.0466    1.1352 C   0  0  0  0  0  0  0  0  0  0  0  0
    1.8702    0.3843    3.0674 O   0  0  0  0  0  0  0  0  0  0  0  0
    4.2455    0.9146    1.1640 C   0  0  0  0  0  0  0  0  0  0  0  0
    3.3296   -1.2031    0.4004 C   0  0  0  0  0  0  0  0  0  0  0  0
    5.4069    0.6783    0.3202 C   0  0  0  0  0  0  0  0  0  0  0  0
    4.4252   -1.4391   -0.3466 C   0  0  0  0  0  0  0  0  0  0  0  0
    5.5031   -0.4528   -0.4106 C   0  0  0  0  0  0  0  0  0  0  0  0
    6.6758   -0.7699   -1.2855 C   0  0  0  0  0  0  0  0  0  0  0  0
   -5.0187   -0.9314   -0.6192 C   0  0  0  0  0  0  0  0  0  0  0  0
   -4.5856    1.3544   -1.2767 C   0  0  0  0  0  0  0  0  0  0  0  0
   -6.3639   -0.7880   -1.1566 C   0  0  0  0  0  0  0  0  0  0  0  0
   -5.8254    1.4929   -1.7730 C   0  0  0  0  0  0  0  0  0  0  0  0
   -3.7221    2.3896   -1.3316 F   0  0  0  0  0  0  0  0  0  0  0  0
   -6.7400    0.3771   -1.7074 C   0  0  0  0  0  0  0  0  0  0  0  0
   -7.9823    0.5352   -2.2033 F   0  0  0  0  0  0  0  0  0  0  0  0
   -1.9300   -0.8274   -1.9312 H   0  0  0  0  0  0  0  0  0  0  0  0
   -3.3101    0.1355    2.0067 H   0  0  0  0  0  0  0  0  0  0  0  0
    0.4078   -0.5660   -1.1729 H   0  0  0  0  0  0  0  0  0  0  0  0
   -0.9711    0.3490    2.7652 H   0  0  0  0  0  0  0  0  0  0  0  0
    0.7788    1.8942    1.2302 H   0  0  0  0  0  0  0  0  0  0  0  0
    4.2911    1.7240    1.8883 H   0  0  0  0  0  0  0  0  0  0  0  0
    2.5259   -1.9278    0.4762 H   0  0  0  0  0  0  0  0  0  0  0  0
    6.1906    1.4304    0.3165 H   0  0  0  0  0  0  0  0  0  0  0  0
    4.5326   -2.3680   -0.9005 H   0  0  0  0  0  0  0  0  0  0  0  0
    6.3709   -0.8205   -2.3369 H   0  0  0  0  0  0  0  0  0  0  0  0
    7.4613   -0.0123   -1.2046 H   0  0  0  0  0  0  0  0  0  0  0  0
    7.1152   -1.7326   -1.0063 H   0  0  0  0  0  0  0  0  0  0  0  0
   -4.7615   -1.8854   -0.1640 H   0  0  0  0  0  0  0  0  0  0  0  0
   -7.0481   -1.6272   -1.1005 H   0  0  0  0  0  0  0  0  0  0  0  0
   -6.1590    2.4196   -2.2206 H   0  0  0  0  0  0  0  0  0  0  0  0
  1  2  1  0
  3  1  2  0
  1  4  1  0
  5  3  1  0
  4  6  2  0
  7  5  2  0
  6  7  1  0
  8  7  1  0
  9  8  1  0
  9 10  1  0
  9 11  2  0
 10 12  2  0
 13 10  1  0
 12 14  1  0
 15 13  2  0
 14 16  2  0
 16 15  1  0
 16 17  1  0
  2 18  2  0
 19  2  1  0
 18 20  1  0
 21 19  2  0
 19 22  1  0
 20 23  2  0
 23 21  1  0
 23 24  1  0
  3 25  1  0
  4 26  1  0
  5 27  1  0
  6 28  1  0
  8 29  1  0
 12 30  1  0
 13 31  1  0
 14 32  1  0
 15 33  1  0
 17 34  1  0
 17 35  1  0
 17 36  1  0
 18 37  1  0
 20 38  1  0
 21 39  1  0
M  END
$$$$

     RDKit          3D

 38 39  0  0  0  0  0  0  0  0999 V2000
   -4.3150   -0.3327   -0.9492 C   0  0  0  0  0  0  0  0  0  0  0  0
   -3.0833   -0.0480   -0.1119 C   0  0  0  0  0  0  0  0  0  0  0  0
   -4.3001    0.4389   -2.2718 C   0  0  0  0  0  0  0  0  0  0  0  0
   -5.6132   -0.0716   -0.1803 C   0  0  0  0  0  0  0  0  0  0  0  0
   -2.1472   -0.9916    0.1314 C   0  0  0  0  0  0  0  0  0  0  0  0
   -2.8341    1.3107    0.3755 C   0  0  0  0  0  0  0  0  0  0  0  0
   -0.8159   -0.6090    0.5834 C   0  0  0  0  0  0  0  0  0  0  0  0
   -1.6043    1.6609    0.7944 C   0  0  0  0  0  0  0  0  0  0  0  0
   -0.5205    0.6923    0.7589 C   0  0  0  0  0  0  0  0  0  0  0  0
    0.7330    1.1839    0.4976 N   0  0  0  0  0  0  0  0  0  0  0  0
    1.6927    1.2437    1.4866 C   0  0  0  0  0  0  0  0  0  0  0  0
    2.9511    0.5475    1.1151 C   0  0  0  0  0  0  0  0  0  0  0  0
    1.5806    1.8432    2.5498 O   0  0  0  0  0  0  0  0  0  0  0  0
    3.0228   -0.7853    1.2935 C   0  0  0  0  0  0  0  0  0  0  0  0
    3.9658    1.2258    0.3232 C   0  0  0  0  0  0  0  0  0  0  0  0
    3.8872   -1.5715    0.4258 C   0  0  0  0  0  0  0  0  0  0  0  0
    4.8286    0.5026   -0.4132 C   0  0  0  0  0  0  0  0  0  0  0  0
    4.7614   -0.9585   -0.4011 C   0  0  0  0  0  0  0  0  0  0  0  0
    5.6896   -1.7000   -1.3138 C   0  0  0  0  0  0  0  0  0  0  0  0
   -4.3176   -1.4009   -1.2090 H   0  0  0  0  0  0  0  0  0  0  0  0
   -3.3817    0.2348   -2.8352 H   0  0  0  0  0  0  0  0  0  0  0  0
   -5.1418    0.1288   -2.9015 H   0  0  0  0  0  0  0  0  0  0  0  0
   -4.3768    1.5214   -2.1174 H   0  0  0  0  0  0  0  0  0  0  0  0
   -5.6022   -0.5705    0.7957 H   0  0  0  0  0  0  0  0  0  0  0  0
   -6.4680   -0.4683   -0.7381 H   0  0  0  0  0  0  0  0  0  0  0  0
   -5.7882    0.9991   -0.0188 H   0  0  0  0  0  0  0  0  0  0  0  0
   -2.4093   -2.0448    0.1864 H   0  0  0  0  0  0  0  0  0  0  0  0
   -3.6506    2.0236    0.4117 H   0  0  0  0  0  0  0  0  0  0  0  0
   -0.1804   -1.3874    0.9945 H   0  0  0  0  0  0  0  0  0  0  0  0
   -1.3974    2.6525    1.1833 H   0  0  0  0  0  0  0  0  0  0  0  0
    1.0678    1.0367   -0.4483 H   0  0  0  0  0  0  0  0  0  0  0  0
    2.5477   -1.2736    2.1390 H   0  0  0  0  0  0  0  0  0  0  0  0
    4.0091    2.3095    0.3562 H   0  0  0  0  0  0  0  0  0  0  0  0
    3.8157   -2.6528    0.4846 H   0  0  0  0  0  0  0  0  0  0  0  0
    5.5994    0.9890   -1.0042 H   0  0  0  0  0  0  0  0  0  0  0  0
    5.5652   -2.7840   -1.2224 H   0  0  0  0  0  0  0  0  0  0  0  0
    5.4980   -1.4307   -2.3573 H   0  0  0  0  0  0  0  0  0  0  0  0
    6.7321   -1.4636   -1.0801 H   0  0  0  0  0  0  0  0  0  0  0  0
  1  2  1  0
  1  3  1  0
  1  4  1  0
  5  2  2  0
  2  6  1  0
  7  5  1  0
  6  8  2  0
  9  7  2  0
  8  9  1  0
 10  9  1  0
 11 10  1  0
 11 12  1  0
 11 13  2  0
 12 14  2  0
 15 12  1  0
 14 16  1  0
 17 15  2  0
 16 18  2  0
 18 17  1  0
 18 19  1  0
  1 20  1  0
  3 21  1  0
  3 22  1  0
  3 23  1  0
  4 24  1  0
  4 25  1  0
  4 26  1  0
  5 27  1  0
  6 28  1  0
  7 29  1  0
  8 30  1  0
 10 31  1  0
 14 32  1  0
 15 33  1  0
 16 34  1  0
 17 35  1  0
 19 36  1  0
 19 37  1  0
 19 38  1  0
M  END
$$$$

     RDKit          3D

 31 32  0  0  0  0  0  0  0  0999 V2000
   -1.0832   -1.5845    0.6352 N   0  0  0  0  0  0  0  0  0  0  0  0
   -1.8293   -0.4262    0.5156 C   0  0  0  0  0  0  0  0  0  0  0  0
   -0.6371   -2.2325   -0.4992 C   0  0  0  0  0  0  0  0  0  0  0  0
    0.7076   -1.7941   -0.9510 C   0  0  0  0  0  0  0  0  0  0  0  0
   -1.2574   -3.1320   -1.0508 O   0  0  0  0  0  0  0  0  0  0  0  0
    0.7526   -0.7788   -1.8373 C   0  0  0  0  0  0  0  0  0  0  0  0
    1.8964   -2.1203   -0.1711 C   0  0  0  0  0  0  0  0  0  0  0  0
    1.8211    0.2048   -1.7330 C   0  0  0  0  0  0  0  0  0  0  0  0
    2.8960   -1.2219   -0.0905 C   0  0  0  0  0  0  0  0  0  0  0  0
    2.7716    0.0458   -0.7926 C   0  0  0  0  0  0  0  0  0  0  0  0
    3.7462    0.9781   -0.5370 O   0  0  0  0  0  0  0  0  0  0  0  0
    3.2857    1.9248    0.4279 C   0  0  0  0  0  0  0  0  0  0  0  0
   -3.1034   -0.4435    0.0749 C   0  0  0  0  0  0  0  0  0  0  0  0
   -1.3085    0.7861    1.1442 C   0  0  0  0  0  0  0  0  0  0  0  0
   -3.9948    0.6855    0.3357 C   0  0  0  0  0  0  0  0  0  0  0  0
   -2.1105    1.8414    1.3541 C   0  0  0  0  0  0  0  0  0  0  0  0
    0.0176    0.8053    1.5096 O   0  0  0  0  0  0  0  0  0  0  0  0
   -5.9710    0.5977   -0.2526 I   0  0  0  0  0  0  0  0  0  0  0  0
   -3.5056    1.7827    0.9497 C   0  0  0  0  0  0  0  0  0  0  0  0
   -1.5058   -2.2507    1.2760 H   0  0  0  0  0  0  0  0  0  0  0  0
    0.1073   -0.7564   -2.7098 H   0  0  0  0  0  0  0  0  0  0  0  0
    1.9569   -3.0916    0.3076 H   0  0  0  0  0  0  0  0  0  0  0  0
    1.9146    0.9604   -2.5051 H   0  0  0  0  0  0  0  0  0  0  0  0
    3.8093   -1.4265    0.4570 H   0  0  0  0  0  0  0  0  0  0  0  0
    4.1091    2.6127    0.6424 H   0  0  0  0  0  0  0  0  0  0  0  0
    2.4468    2.5090    0.0337 H   0  0  0  0  0  0  0  0  0  0  0  0
    3.0015    1.4312    1.3640 H   0  0  0  0  0  0  0  0  0  0  0  0
   -3.4648   -1.2513   -0.5551 H   0  0  0  0  0  0  0  0  0  0  0  0
   -1.7374    2.7462    1.8207 H   0  0  0  0  0  0  0  0  0  0  0  0
    0.3901   -0.0527    1.2344 H   0  0  0  0  0  0  0  0  0  0  0  0
   -4.1213    2.6513    1.1615 H   0  0  0  0  0  0  0  0  0  0  0  0
  1  2  1  0
  3  1  1  0
  3  4  1  0
  3  5  2  0
  4  6  2  0
  7  4  1  0
  6  8  1  0
  9  7  2  0
  8 10  2  0
 10  9  1  0
 11 10  1  0
 11 12  1  0
  2 13  2  0
 14  2  1  0
 13 15  1  0
 16 14  2  0
 14 17  1  0
 15 18  1  0
 15 19  2  0
 19 16  1  0
  1 20  1  0
  6 21  1  0
  7 22  1  0
  8 23  1  0
  9 24  1  0
 12 25  1  0
 12 26  1  0
 12 27  1  0
 13 28  1  0
 16 29  1  0
 17 30  1  0
 19 31  1  0
M  END
$$$$

     RDKit          3D

 30 31  0  0  0  0  0  0  0  0999 V2000
   -1.2876   -1.5673    1.3520 N   0  0  0  0  0  0  0  0  0  0  0  0
   -2.2289   -0.5658    1.2397 C   0  0  0  0  0  0  0  0  0  0  0  0
   -0.7345   -2.1533    0.2321 C   0  0  0  0  0  0  0  0  0  0  0  0
    0.4669   -1.4475   -0.2844 C   0  0  0  0  0  0  0  0  0  0  0  0
   -1.1497   -3.1821   -0.2871 O   0  0  0  0  0  0  0  0  0  0  0  0
    1.6596   -1.7336    0.2730 C   0  0  0  0  0  0  0  0  0  0  0  0
    0.3408   -0.3235   -1.2013 C   0  0  0  0  0  0  0  0  0  0  0  0
    2.7326   -0.7542    0.1953 C   0  0  0  0  0  0  0  0  0  0  0  0
    1.3670    0.5354   -1.3441 C   0  0  0  0  0  0  0  0  0  0  0  0
    2.6036    0.3202   -0.6067 C   0  0  0  0  0  0  0  0  0  0  0  0
    3.4294    1.4158   -0.5055 O   0  0  0  0  0  0  0  0  0  0  0  0
    4.4792    1.3287   -1.4672 C   0  0  0  0  0  0  0  0  0  0  0  0
   -3.4445   -0.8204    0.7166 C   0  0  0  0  0  0  0  0  0  0  0  0
   -1.8386    0.8308    1.4783 C   0  0  0  0  0  0  0  0  0  0  0  0
   -4.1573    0.2313    0.0129 C   0  0  0  0  0  0  0  0  0  0  0  0
   -2.5609    1.8180    0.9104 C   0  0  0  0  0  0  0  0  0  0  0  0
   -0.3895    1.2031    2.5990 Br  0  0  0  0  0  0  0  0  0  0  0  0
   -3.7276    1.5023    0.1016 C   0  0  0  0  0  0  0  0  0  0  0  0
   -0.6438   -1.4564    2.1275 H   0  0  0  0  0  0  0  0  0  0  0  0
    1.8844   -2.7189    0.6685 H   0  0  0  0  0  0  0  0  0  0  0  0
   -0.5894   -0.1978   -1.7447 H   0  0  0  0  0  0  0  0  0  0  0  0
    3.6567   -0.9508    0.7265 H   0  0  0  0  0  0  0  0  0  0  0  0
    1.3020    1.3889   -2.0094 H   0  0  0  0  0  0  0  0  0  0  0  0
    4.0793    1.3316   -2.4869 H   0  0  0  0  0  0  0  0  0  0  0  0
    5.0932    0.4367   -1.3010 H   0  0  0  0  0  0  0  0  0  0  0  0
    5.1185    2.2085   -1.3492 H   0  0  0  0  0  0  0  0  0  0  0  0
   -3.8714   -1.8185    0.7305 H   0  0  0  0  0  0  0  0  0  0  0  0
   -5.0300   -0.0370   -0.5730 H   0  0  0  0  0  0  0  0  0  0  0  0
   -2.3177    2.8649    1.0601 H   0  0  0  0  0  0  0  0  0  0  0  0
   -4.2417    2.3112   -0.4072 H   0  0  0  0  0  0  0  0  0  0  0  0
  1  2  1  0
  3  1  1  0
  3  4  1  0
  3  5  2  0
  4  6  2  0
  7  4  1  0
  6  8  1  0
  9  7  2  0
  8 10  2  0
 10  9  1  0
 11 10  1  0
 11 12  1  0
  2 13  2  0
 14  2  1  0
 13 15  1  0
 16 14  2  0
 14 17  1  0
 15 18  2  0
 18 16  1  0
  1 19  1  0
  6 20  1  0
  7 21  1  0
  8 22  1  0
  9 23  1  0
 12 24  1  0
 12 25  1  0
 12 26  1  0
 13 27  1  0
 15 28  1  0
 16 29  1  0
 18 30  1  0
M  END
$$$$

     RDKit          3D

 33 34  0  0  0  0  0  0  0  0999 V2000
   -0.6954    1.6618    0.7892 N   0  0  0  0  0  0  0  0  0  0  0  0
   -1.6803    0.8003    0.3638 C   0  0  0  0  0  0  0  0  0  0  0  0
    0.3601    1.1948    1.5369 C   0  0  0  0  0  0  0  0  0  0  0  0
    1.4453    0.5793    0.7321 C   0  0  0  0  0  0  0  0  0  0  0  0
    0.4267    1.3181    2.7536 O   0  0  0  0  0  0  0  0  0  0  0  0
    2.4211    1.3747    0.2488 C   0  0  0  0  0  0  0  0  0  0  0  0
    1.5193   -0.8657    0.5592 C   0  0  0  0  0  0  0  0  0  0  0  0
    3.5032    0.7896   -0.5283 C   0  0  0  0  0  0  0  0  0  0  0  0
    2.5648   -1.4074   -0.0923 C   0  0  0  0  0  0  0  0  0  0  0  0
    3.6220   -0.5492   -0.6028 C   0  0  0  0  0  0  0  0  0  0  0  0
    4.5892   -1.1735   -1.3548 O   0  0  0  0  0  0  0  0  0  0  0  0
    5.7440   -1.4270   -0.5583 C   0  0  0  0  0  0  0  0  0  0  0  0
   -1.9167    0.6352   -0.9496 C   0  0  0  0  0  0  0  0  0  0  0  0
   -2.6736    0.3520    1.3283 C   0  0  0  0  0  0  0  0  0  0  0  0
   -3.2447    0.2599   -1.4078 C   0  0  0  0  0  0  0  0  0  0  0  0
   -3.8802   -0.0693    0.9064 C   0  0  0  0  0  0  0  0  0  0  0  0
   -4.1982   -0.0867   -0.5190 C   0  0  0  0  0  0  0  0  0  0  0  0
   -5.5849   -0.4856   -0.9117 C   0  0  0  0  0  0  0  0  0  0  0  0
   -1.0646    2.5204    1.1840 H   0  0  0  0  0  0  0  0  0  0  0  0
    2.4338    2.4449    0.4225 H   0  0  0  0  0  0  0  0  0  0  0  0
    0.7200   -1.4810    0.9568 H   0  0  0  0  0  0  0  0  0  0  0  0
    4.2109    1.4482   -1.0198 H   0  0  0  0  0  0  0  0  0  0  0  0
    2.6458   -2.4772   -0.2448 H   0  0  0  0  0  0  0  0  0  0  0  0
    6.4321   -2.0392   -1.1473 H   0  0  0  0  0  0  0  0  0  0  0  0
    6.2504   -0.4892   -0.3049 H   0  0  0  0  0  0  0  0  0  0  0  0
    5.4903   -1.9800    0.3530 H   0  0  0  0  0  0  0  0  0  0  0  0
   -1.1232    0.7157   -1.6858 H   0  0  0  0  0  0  0  0  0  0  0  0
   -2.4178    0.3542    2.3831 H   0  0  0  0  0  0  0  0  0  0  0  0
   -3.4279    0.2660   -2.4766 H   0  0  0  0  0  0  0  0  0  0  0  0
   -4.6265   -0.4126    1.6153 H   0  0  0  0  0  0  0  0  0  0  0  0
   -5.7331   -0.4258   -1.9949 H   0  0  0  0  0  0  0  0  0  0  0  0
   -5.7876   -1.5175   -0.6049 H   0  0  0  0  0  0  0  0  0  0  0  0
   -6.3244    0.1718   -0.4425 H   0  0  0  0  0  0  0  0  0  0  0  0
  1  2  1  0
  3  1  1  0
  3  4  1  0
  3  5  2  0
  4  6  2  0
  7  4  1  0
  6  8  1  0
  9  7  2  0
  8 10  2  0
 10  9  1  0
 11 10  1  0
 11 12  1  0
  2 13  2  0
 14  2  1  0
 13 15  1  0
 16 14  2  0
 15 17  2  0
 17 16  1  0
 17 18  1  0
  1 19  1  0
  6 20  1  0
  7 21  1  0
  8 22  1  0
  9 23  1  0
 12 24  1  0
 12 25  1  0
 12 26  1  0
 13 27  1  0
 14 28  1  0
 15 29  1  0
 16 30  1  0
 18 31  1  0
 18 32  1  0
 18 33  1  0
M  END
$$$$

     RDKit          3D

 30 31  0  0  0  0  0  0  0  0999 V2000
    1.0387    0.9159    1.7393 N   0  0  0  0  0  0  0  0  0  0  0  0
    1.9824    0.1772    1.0571 C   0  0  0  0  0  0  0  0  0  0  0  0
    0.4571    2.0258    1.1609 C   0  0  0  0  0  0  0  0  0  0  0  0
   -0.7790    1.7245    0.3929 C   0  0  0  0  0  0  0  0  0  0  0  0
    0.8726    3.1709    1.2902 O   0  0  0  0  0  0  0  0  0  0  0  0
   -0.6489    1.4341   -0.9170 C   0  0  0  0  0  0  0  0  0  0  0  0
   -2.0367    1.4486    1.0755 C   0  0  0  0  0  0  0  0  0  0  0  0
   -1.6201    0.5519   -1.5476 C   0  0  0  0  0  0  0  0  0  0  0  0
   -2.9450    0.6502    0.4841 C   0  0  0  0  0  0  0  0  0  0  0  0
   -2.6568    0.0857   -0.8255 C   0  0  0  0  0  0  0  0  0  0  0  0
   -3.6110   -0.7569   -1.3422 O   0  0  0  0  0  0  0  0  0  0  0  0
   -3.2457   -2.1160   -1.1064 C   0  0  0  0  0  0  0  0  0  0  0  0
    3.1988    0.6887    0.7834 C   0  0  0  0  0  0  0  0  0  0  0  0
    1.6242   -1.1333    0.5070 C   0  0  0  0  0  0  0  0  0  0  0  0
    4.0008    0.1179   -0.2857 C   0  0  0  0  0  0  0  0  0  0  0  0
    2.4087   -1.7039   -0.4269 C   0  0  0  0  0  0  0  0  0  0  0  0
    0.2226   -1.9578    1.0894 Cl  0  0  0  0  0  0  0  0  0  0  0  0
    3.6186   -1.0307   -0.8711 C   0  0  0  0  0  0  0  0  0  0  0  0
    0.4105    0.3671    2.3163 H   0  0  0  0  0  0  0  0  0  0  0  0
    0.0664    1.9553   -1.5453 H   0  0  0  0  0  0  0  0  0  0  0  0
   -2.2236    1.9166    2.0359 H   0  0  0  0  0  0  0  0  0  0  0  0
   -1.5804    0.4180   -2.6229 H   0  0  0  0  0  0  0  0  0  0  0  0
   -3.9030    0.4352    0.9438 H   0  0  0  0  0  0  0  0  0  0  0  0
   -2.3108   -2.3662   -1.6196 H   0  0  0  0  0  0  0  0  0  0  0  0
   -4.0378   -2.7525   -1.5116 H   0  0  0  0  0  0  0  0  0  0  0  0
   -3.1588   -2.3212   -0.0337 H   0  0  0  0  0  0  0  0  0  0  0  0
    3.5730    1.5699    1.2957 H   0  0  0  0  0  0  0  0  0  0  0  0
    4.9022    0.6402   -0.5897 H   0  0  0  0  0  0  0  0  0  0  0  0
    2.1800   -2.6748   -0.8526 H   0  0  0  0  0  0  0  0  0  0  0  0
    4.2008   -1.4805   -1.6687 H   0  0  0  0  0  0  0  0  0  0  0  0
  1  2  1  0
  3  1  1  0
  3  4  1  0
  3  5  2  0
  4  6  2  0
  7  4  1  0
  6  8  1  0
  9  7  2  0
  8 10  2  0
 10  9  1  0
 11 10  1  0
 11 12  1  0
  2 13  2  0
 14  2  1  0
 13 15  1  0
 16 14  2  0
 14 17  1  0
 15 18  2  0
 18 16  1  0
  1 19  1  0
  6 20  1  0
  7 21  1  0
  8 22  1  0
  9 23  1  0
 12 24  1  0
 12 25  1  0
 12 26  1  0
 13 27  1  0
 15 28  1  0
 16 29  1  0
 18 30  1  0
M  END
$$$$

     RDKit          3D

 30 31  0  0  0  0  0  0  0  0999 V2000
   -1.1751    1.6083    0.7312 N   0  0  0  0  0  0  0  0  0  0  0  0
   -2.2908    0.8115    0.5863 C   0  0  0  0  0  0  0  0  0  0  0  0
   -0.4341    1.9887   -0.3695 C   0  0  0  0  0  0  0  0  0  0  0  0
    0.7817    1.1636   -0.5832 C   0  0  0  0  0  0  0  0  0  0  0  0
   -0.7119    2.9309   -1.1012 O   0  0  0  0  0  0  0  0  0  0  0  0
    1.9125    1.5236    0.0547 C   0  0  0  0  0  0  0  0  0  0  0  0
    0.7181   -0.0966   -1.3098 C   0  0  0  0  0  0  0  0  0  0  0  0
    2.9744    0.5445    0.2270 C   0  0  0  0  0  0  0  0  0  0  0  0
    1.7431   -0.9649   -1.2247 C   0  0  0  0  0  0  0  0  0  0  0  0
    2.9188   -0.6270   -0.4352 C   0  0  0  0  0  0  0  0  0  0  0  0
    3.7693   -1.6725   -0.1591 O   0  0  0  0  0  0  0  0  0  0  0  0
    4.8673   -1.6647   -1.0686 C   0  0  0  0  0  0  0  0  0  0  0  0
   -3.4194    1.3015    0.0356 C   0  0  0  0  0  0  0  0  0  0  0  0
   -2.2924   -0.5517    1.1285 C   0  0  0  0  0  0  0  0  0  0  0  0
   -4.5915    0.4545   -0.1170 C   0  0  0  0  0  0  0  0  0  0  0  0
   -3.3873   -1.3262    1.0049 C   0  0  0  0  0  0  0  0  0  0  0  0
   -0.8995   -1.1543    1.9537 Cl  0  0  0  0  0  0  0  0  0  0  0  0
   -4.5719   -0.8081    0.3438 C   0  0  0  0  0  0  0  0  0  0  0  0
   -5.9404   -1.8388    0.1814 Cl  0  0  0  0  0  0  0  0  0  0  0  0
   -0.6280    1.4285    1.5674 H   0  0  0  0  0  0  0  0  0  0  0  0
    2.1096    2.5535    0.3328 H   0  0  0  0  0  0  0  0  0  0  0  0
   -0.1645   -0.3133   -1.9026 H   0  0  0  0  0  0  0  0  0  0  0  0
    3.8416    0.8152    0.8188 H   0  0  0  0  0  0  0  0  0  0  0  0
    1.7222   -1.9169   -1.7433 H   0  0  0  0  0  0  0  0  0  0  0  0
    4.5236   -1.7587   -2.1045 H   0  0  0  0  0  0  0  0  0  0  0  0
    5.5007   -2.5276   -0.8407 H   0  0  0  0  0  0  0  0  0  0  0  0
    5.4688   -0.7571   -0.9480 H   0  0  0  0  0  0  0  0  0  0  0  0
   -3.4661    2.3136   -0.3567 H   0  0  0  0  0  0  0  0  0  0  0  0
   -5.4631    0.8752   -0.6103 H   0  0  0  0  0  0  0  0  0  0  0  0
   -3.4159   -2.3346    1.4032 H   0  0  0  0  0  0  0  0  0  0  0  0
  1  2  1  0
  3  1  1  0
  3  4  1  0
  3  5  2  0
  4  6  2  0
  7  4  1  0
  6  8  1  0
  9  7  2  0
  8 10  2  0
 10  9  1  0
 11 10  1  0
 11 12  1  0
  2 13  2  0
 14  2  1  0
 13 15  1  0
 16 14  2  0
 14 17  1  0
 15 18  2  0
 18 16  1  0
 18 19  1  0
  1 20  1  0
  6 21  1  0
  7 22  1  0
  8 23  1  0
  9 24  1  0
 12 25  1  0
 12 26  1  0
 12 27  1  0
 13 28  1  0
 15 29  1  0
 16 30  1  0
M  END
$$$$

     RDKit          3D

 30 31  0  0  0  0  0  0  0  0999 V2000
    0.7579    1.9498   -0.2494 N   0  0  0  0  0  0  0  0  0  0  0  0
    1.7494    1.1998    0.3410 C   0  0  0  0  0  0  0  0  0  0  0  0
    0.3523    1.6615   -1.5341 C   0  0  0  0  0  0  0  0  0  0  0  0
   -0.7178    0.6374   -1.6161 C   0  0  0  0  0  0  0  0  0  0  0  0
    0.7906    2.2379   -2.5210 O   0  0  0  0  0  0  0  0  0  0  0  0
   -0.3591   -0.6492   -1.7883 C   0  0  0  0  0  0  0  0  0  0  0  0
   -2.1083    0.9746   -1.3425 C   0  0  0  0  0  0  0  0  0  0  0  0
   -1.3104   -1.7065   -1.4836 C   0  0  0  0  0  0  0  0  0  0  0  0
   -2.9907   -0.0049   -1.0719 C   0  0  0  0  0  0  0  0  0  0  0  0
   -2.5443   -1.3879   -1.0482 C   0  0  0  0  0  0  0  0  0  0  0  0
   -3.5119   -2.3308   -0.7986 O   0  0  0  0  0  0  0  0  0  0  0  0
   -3.5109   -2.6817    0.5844 C   0  0  0  0  0  0  0  0  0  0  0  0
    3.0548    1.4346    0.1025 C   0  0  0  0  0  0  0  0  0  0  0  0
    1.3700    0.4171    1.5100 C   0  0  0  0  0  0  0  0  0  0  0  0
    4.0342    1.2033    1.1562 C   0  0  0  0  0  0  0  0  0  0  0  0
    2.2851    0.1298    2.4547 C   0  0  0  0  0  0  0  0  0  0  0  0
    3.6576    0.5827    2.2894 C   0  0  0  0  0  0  0  0  0  0  0  0
    4.7838    0.2746    3.5559 Cl  0  0  0  0  0  0  0  0  0  0  0  0
    0.8921    2.9495   -0.1351 H   0  0  0  0  0  0  0  0  0  0  0  0
    0.5820   -0.9299   -2.2521 H   0  0  0  0  0  0  0  0  0  0  0  0
   -2.4114    2.0169   -1.3842 H   0  0  0  0  0  0  0  0  0  0  0  0
   -1.0619   -2.7239   -1.7646 H   0  0  0  0  0  0  0  0  0  0  0  0
   -4.0369    0.2103   -0.8850 H   0  0  0  0  0  0  0  0  0  0  0  0
   -3.8949   -1.8571    1.1931 H   0  0  0  0  0  0  0  0  0  0  0  0
   -4.1735   -3.5418    0.7153 H   0  0  0  0  0  0  0  0  0  0  0  0
   -2.5111   -2.9704    0.9293 H   0  0  0  0  0  0  0  0  0  0  0  0
    3.4091    1.7550   -0.8723 H   0  0  0  0  0  0  0  0  0  0  0  0
    0.3457    0.0681    1.5930 H   0  0  0  0  0  0  0  0  0  0  0  0
    5.0531    1.5395    0.9923 H   0  0  0  0  0  0  0  0  0  0  0  0
    2.0257   -0.4581    3.3300 H   0  0  0  0  0  0  0  0  0  0  0  0
  1  2  1  0
  3  1  1  0
  3  4  1  0
  3  5  2  0
  4  6  2  0
  7  4  1  0
  6  8  1  0
  9  7  2  0
  8 10  2  0
 10  9  1  0
 11 10  1  0
 11 12  1  0
  2 13  2  0
 14  2  1  0
 13 15  1  0
 16 14  2  0
 15 17  2  0
 17 16  1  0
 17 18  1  0
  1 19  1  0
  6 20  1  0
  7 21  1  0
  8 22  1  0
  9 23  1  0
 12 24  1  0
 12 25  1  0
 12 26  1  0
 13 27  1  0
 14 28  1  0
 15 29  1  0
 16 30  1  0
M  END
$$$$

     RDKit          3D

 31 32  0  0  0  0  0  0  0  0999 V2000
   -1.0095    1.7071   -0.4633 N   0  0  0  0  0  0  0  0  0  0  0  0
   -2.1035    0.9292   -0.1303 C   0  0  0  0  0  0  0  0  0  0  0  0
   -0.3082    1.4456   -1.6234 C   0  0  0  0  0  0  0  0  0  0  0  0
    0.9080    0.6238   -1.4088 C   0  0  0  0  0  0  0  0  0  0  0  0
   -0.6189    1.8891   -2.7212 O   0  0  0  0  0  0  0  0  0  0  0  0
    2.0296    1.2694   -1.0332 C   0  0  0  0  0  0  0  0  0  0  0  0
    0.8144   -0.8197   -1.2432 C   0  0  0  0  0  0  0  0  0  0  0  0
    2.9780    0.5947   -0.1601 C   0  0  0  0  0  0  0  0  0  0  0  0
    1.7296   -1.4596   -0.4919 C   0  0  0  0  0  0  0  0  0  0  0  0
    2.8184   -0.7125    0.1237 C   0  0  0  0  0  0  0  0  0  0  0  0
    3.3361   -1.2744    1.2682 O   0  0  0  0  0  0  0  0  0  0  0  0
    4.5595   -1.9467    0.9762 C   0  0  0  0  0  0  0  0  0  0  0  0
   -3.2561    0.9953   -0.8259 C   0  0  0  0  0  0  0  0  0  0  0  0
   -2.0731    0.2220    1.1516 C   0  0  0  0  0  0  0  0  0  0  0  0
   -4.4806    0.4359   -0.2736 C   0  0  0  0  0  0  0  0  0  0  0  0
   -3.2020   -0.3176    1.6579 C   0  0  0  0  0  0  0  0  0  0  0  0
   -0.8542    0.1442    1.7933 O   0  0  0  0  0  0  0  0  0  0  0  0
   -6.0476    0.6113   -1.2675 Br  0  0  0  0  0  0  0  0  0  0  0  0
   -4.4508   -0.1943    0.9154 C   0  0  0  0  0  0  0  0  0  0  0  0
   -3.2680   -1.2369    3.2835 Br  0  0  0  0  0  0  0  0  0  0  0  0
   -1.1931    2.7026   -0.3713 H   0  0  0  0  0  0  0  0  0  0  0  0
    2.3127    2.2220   -1.4697 H   0  0  0  0  0  0  0  0  0  0  0  0
    0.0002   -1.3494   -1.7261 H   0  0  0  0  0  0  0  0  0  0  0  0
    3.8585    1.1363    0.1678 H   0  0  0  0  0  0  0  0  0  0  0  0
    1.6850   -2.5321   -0.3376 H   0  0  0  0  0  0  0  0  0  0  0  0
    5.3140   -1.2445    0.6053 H   0  0  0  0  0  0  0  0  0  0  0  0
    4.9318   -2.3881    1.9052 H   0  0  0  0  0  0  0  0  0  0  0  0
    4.4027   -2.7548    0.2531 H   0  0  0  0  0  0  0  0  0  0  0  0
   -3.2768    1.3850   -1.8404 H   0  0  0  0  0  0  0  0  0  0  0  0
   -0.1847    0.5404    1.2061 H   0  0  0  0  0  0  0  0  0  0  0  0
   -5.3511   -0.6234    1.3437 H   0  0  0  0  0  0  0  0  0  0  0  0
  1  2  1  0
  3  1  1  0
  3  4  1  0
  3  5  2  0
  4  6  2  0
  7  4  1  0
  6  8  1  0
  9  7  2  0
  8 10  2  0
 10  9  1  0
 11 10  1  0
 11 12  1  0
  2 13  2  0
 14  2  1  0
 13 15  1  0
 16 14  2  0
 14 17  1  0
 15 18  1  0
 15 19  2  0
 19 16  1  0
 16 20  1  0
  1 21  1  0
  6 22  1  0
  7 23  1  0
  8 24  1  0
  9 25  1  0
 12 26  1  0
 12 27  1  0
 12 28  1  0
 13 29  1  0
 17 30  1  0
 19 31  1  0
M  END
$$$$

     RDKit          3D

 30 31  0  0  0  0  0  0  0  0999 V2000
   -1.1573    1.7315    0.4891 N   0  0  0  0  0  0  0  0  0  0  0  0
   -2.0651    0.7018    0.5703 C   0  0  0  0  0  0  0  0  0  0  0  0
   -0.5794    2.0439   -0.7214 C   0  0  0  0  0  0  0  0  0  0  0  0
    0.6666    1.2899   -1.0042 C   0  0  0  0  0  0  0  0  0  0  0  0
   -1.0183    2.9020   -1.4771 O   0  0  0  0  0  0  0  0  0  0  0  0
    1.8347    1.7943   -0.5596 C   0  0  0  0  0  0  0  0  0  0  0  0
    0.6312   -0.0089   -1.6612 C   0  0  0  0  0  0  0  0  0  0  0  0
    3.0190    0.9467   -0.5453 C   0  0  0  0  0  0  0  0  0  0  0  0
    1.7309   -0.7848   -1.6580 C   0  0  0  0  0  0  0  0  0  0  0  0
    2.9439   -0.3172   -1.0045 C   0  0  0  0  0  0  0  0  0  0  0  0
    4.0549   -1.1094   -1.1771 O   0  0  0  0  0  0  0  0  0  0  0  0
    4.2677   -1.9151   -0.0194 C   0  0  0  0  0  0  0  0  0  0  0  0
   -3.3412    0.8409    0.1640 C   0  0  0  0  0  0  0  0  0  0  0  0
   -1.6846   -0.4577    1.3612 C   0  0  0  0  0  0  0  0  0  0  0  0
   -4.3611   -0.0792    0.6429 C   0  0  0  0  0  0  0  0  0  0  0  0
   -2.6213   -1.3343    1.7691 C   0  0  0  0  0  0  0  0  0  0  0  0
   -4.0195   -1.1293    1.4141 C   0  0  0  0  0  0  0  0  0  0  0  0
   -5.2745   -2.3515    2.0490 Br  0  0  0  0  0  0  0  0  0  0  0  0
   -1.4611    2.5713    0.9705 H   0  0  0  0  0  0  0  0  0  0  0  0
    1.9675    2.8593   -0.3964 H   0  0  0  0  0  0  0  0  0  0  0  0
   -0.2837   -0.3200   -2.1540 H   0  0  0  0  0  0  0  0  0  0  0  0
    3.9784    1.4062   -0.3342 H   0  0  0  0  0  0  0  0  0  0  0  0
    1.7448   -1.7508   -2.1500 H   0  0  0  0  0  0  0  0  0  0  0  0
    5.1358   -2.5536   -0.2083 H   0  0  0  0  0  0  0  0  0  0  0  0
    4.4854   -1.2926    0.8555 H   0  0  0  0  0  0  0  0  0  0  0  0
    3.4048   -2.5609    0.1780 H   0  0  0  0  0  0  0  0  0  0  0  0
   -3.6251    1.5769   -0.5827 H   0  0  0  0  0  0  0  0  0  0  0  0
   -0.6378   -0.6011    1.6082 H   0  0  0  0  0  0  0  0  0  0  0  0
   -5.3885    0.1045    0.3464 H   0  0  0  0  0  0  0  0  0  0  0  0
   -2.3470   -2.2027    2.3588 H   0  0  0  0  0  0  0  0  0  0  0  0
  1  2  1  0
  3  1  1  0
  3  4  1  0
  3  5  2  0
  4  6  2  0
  7  4  1  0
  6  8  1  0
  9  7  2  0
  8 10  2  0
 10  9  1  0
 11 10  1  0
 11 12  1  0
  2 13  2  0
 14  2  1  0
 13 15  1  0
 16 14  2  0
 15 17  2  0
 17 16  1  0
 17 18  1  0
  1 19  1  0
  6 20  1  0
  7 21  1  0
  8 22  1  0
  9 23  1  0
 12 24  1  0
 12 25  1  0
 12 26  1  0
 13 27  1  0
 14 28  1  0
 15 29  1  0
 16 30  1  0
M  END
$$$$

     RDKit          3D

 31 32  0  0  0  0  0  0  0  0999 V2000
   -1.1164   -0.6071   -1.6121 N   0  0  0  0  0  0  0  0  0  0  0  0
   -2.1766   -0.1571   -0.8487 C   0  0  0  0  0  0  0  0  0  0  0  0
   -0.3856   -1.6996   -1.1943 C   0  0  0  0  0  0  0  0  0  0  0  0
    0.8355   -1.3398   -0.4321 C   0  0  0  0  0  0  0  0  0  0  0  0
   -0.6711   -2.8573   -1.4719 O   0  0  0  0  0  0  0  0  0  0  0  0
    1.9581   -1.0939   -1.1356 C   0  0  0  0  0  0  0  0  0  0  0  0
    0.7618   -0.9701    0.9744 C   0  0  0  0  0  0  0  0  0  0  0  0
    2.9707   -0.2121   -0.5760 C   0  0  0  0  0  0  0  0  0  0  0  0
    1.7379   -0.2181    1.5156 C   0  0  0  0  0  0  0  0  0  0  0  0
    2.8746    0.1941    0.7045 C   0  0  0  0  0  0  0  0  0  0  0  0
    3.5791    1.2741    1.1842 O   0  0  0  0  0  0  0  0  0  0  0  0
    4.7621    0.8329    1.8481 C   0  0  0  0  0  0  0  0  0  0  0  0
   -3.3263   -0.8549   -0.7513 C   0  0  0  0  0  0  0  0  0  0  0  0
   -2.1557    1.2401   -0.4155 C   0  0  0  0  0  0  0  0  0  0  0  0
   -4.5570   -0.1875   -0.3569 C   0  0  0  0  0  0  0  0  0  0  0  0
   -3.2852    1.8461   -0.0143 C   0  0  0  0  0  0  0  0  0  0  0  0
   -0.9509    1.9045   -0.4333 O   0  0  0  0  0  0  0  0  0  0  0  0
   -4.5368    1.1092   -0.0005 C   0  0  0  0  0  0  0  0  0  0  0  0
   -1.3589   -0.6902   -2.5949 H   0  0  0  0  0  0  0  0  0  0  0  0
    2.1847   -1.6253   -2.0545 H   0  0  0  0  0  0  0  0  0  0  0  0
   -0.0917   -1.3000    1.5575 H   0  0  0  0  0  0  0  0  0  0  0  0
    3.8375    0.0332   -1.1793 H   0  0  0  0  0  0  0  0  0  0  0  0
    1.7055    0.0870    2.5558 H   0  0  0  0  0  0  0  0  0  0  0  0
    5.4323    0.3158    1.1527 H   0  0  0  0  0  0  0  0  0  0  0  0
    4.5197    0.1840    2.6969 H   0  0  0  0  0  0  0  0  0  0  0  0
    5.2828    1.7152    2.2314 H   0  0  0  0  0  0  0  0  0  0  0  0
   -3.3558   -1.9310   -0.8943 H   0  0  0  0  0  0  0  0  0  0  0  0
   -5.4766   -0.7632   -0.3469 H   0  0  0  0  0  0  0  0  0  0  0  0
   -3.2813    2.8812    0.3072 H   0  0  0  0  0  0  0  0  0  0  0  0
   -0.2773    1.2613   -0.7208 H   0  0  0  0  0  0  0  0  0  0  0  0
   -5.4390    1.6287    0.3048 H   0  0  0  0  0  0  0  0  0  0  0  0
  1  2  1  0
  3  1  1  0
  3  4  1  0
  3  5  2  0
  4  6  2  0
  7  4  1  0
  6  8  1  0
  9  7  2  0
  8 10  2  0
 10  9  1  0
 11 10  1  0
 11 12  1  0
  2 13  2  0
 14  2  1  0
 13 15  1  0
 16 14  2  0
 14 17  1  0
 15 18  2  0
 18 16  1  0
  1 19  1  0
  6 20  1  0
  7 21  1  0
  8 22  1  0
  9 23  1  0
 12 24  1  0
 12 25  1  0
 12 26  1  0
 13 27  1  0
 15 28  1  0
 16 29  1  0
 17 30  1  0
 18 31  1  0
M  END
$$$$

     RDKit          3D

 34 35  0  0  0  0  0  0  0  0999 V2000
   -0.7212   -1.0704   -1.8346 N   0  0  0  0  0  0  0  0  0  0  0  0
   -1.7078   -0.8681   -0.8932 C   0  0  0  0  0  0  0  0  0  0  0  0
   -0.1304    0.0093   -2.4580 C   0  0  0  0  0  0  0  0  0  0  0  0
    1.1217    0.4669   -1.8011 C   0  0  0  0  0  0  0  0  0  0  0  0
   -0.5528    0.5403   -3.4787 O   0  0  0  0  0  0  0  0  0  0  0  0
    2.2900   -0.0515   -2.2285 C   0  0  0  0  0  0  0  0  0  0  0  0
    1.0924    1.3656   -0.6563 C   0  0  0  0  0  0  0  0  0  0  0  0
    3.4831    0.1078   -1.4079 C   0  0  0  0  0  0  0  0  0  0  0  0
    2.1999    1.5226    0.0920 C   0  0  0  0  0  0  0  0  0  0  0  0
    3.4136    0.7981   -0.2533 C   0  0  0  0  0  0  0  0  0  0  0  0
    4.5268    1.1137    0.4900 O   0  0  0  0  0  0  0  0  0  0  0  0
    4.7438    0.1233    1.4929 C   0  0  0  0  0  0  0  0  0  0  0  0
   -2.9176   -0.3739   -1.2125 C   0  0  0  0  0  0  0  0  0  0  0  0
   -1.4308   -1.2471    0.4888 C   0  0  0  0  0  0  0  0  0  0  0  0
   -3.8608   -0.0283   -0.1615 C   0  0  0  0  0  0  0  0  0  0  0  0
   -2.3233   -0.9751    1.4593 C   0  0  0  0  0  0  0  0  0  0  0  0
   -0.2327   -1.8915    0.7026 O   0  0  0  0  0  0  0  0  0  0  0  0
   -3.5842   -0.3115    1.1282 C   0  0  0  0  0  0  0  0  0  0  0  0
   -4.5120    0.0143    2.2575 C   0  0  0  0  0  0  0  0  0  0  0  0
   -0.0561   -1.7789   -1.5356 H   0  0  0  0  0  0  0  0  0  0  0  0
    2.4178   -0.3804   -3.2557 H   0  0  0  0  0  0  0  0  0  0  0  0
    0.1742    1.9007   -0.4387 H   0  0  0  0  0  0  0  0  0  0  0  0
    4.4417   -0.1606   -1.8387 H   0  0  0  0  0  0  0  0  0  0  0  0
    2.2188    2.1946    0.9424 H   0  0  0  0  0  0  0  0  0  0  0  0
    5.6144    0.4254    2.0825 H   0  0  0  0  0  0  0  0  0  0  0  0
    3.8839    0.0487    2.1679 H   0  0  0  0  0  0  0  0  0  0  0  0
    4.9592   -0.8513    1.0413 H   0  0  0  0  0  0  0  0  0  0  0  0
   -3.1972   -0.1804   -2.2435 H   0  0  0  0  0  0  0  0  0  0  0  0
   -4.7840    0.4598   -0.4581 H   0  0  0  0  0  0  0  0  0  0  0  0
   -2.1456   -1.2478    2.4931 H   0  0  0  0  0  0  0  0  0  0  0  0
   -0.1640   -2.0785    1.6541 H   0  0  0  0  0  0  0  0  0  0  0  0
   -5.4242    0.5076    1.9050 H   0  0  0  0  0  0  0  0  0  0  0  0
   -4.0261    0.6869    2.9724 H   0  0  0  0  0  0  0  0  0  0  0  0
   -4.8105   -0.8975    2.7857 H   0  0  0  0  0  0  0  0  0  0  0  0
  1  2  1  0
  3  1  1  0
  3  4  1  0
  3  5  2  0
  4  6  2  0
  7  4  1  0
  6  8  1  0
  9  7  2  0
  8 10  2  0
 10  9  1  0
 11 10  1  0
 11 12  1  0
  2 13  2  0
 14  2  1  0
 13 15  1  0
 16 14  2  0
 14 17  1  0
 15 18  2  0
 18 16  1  0
 18 19  1  0
  1 20  1  0
  6 21  1  0
  7 22  1  0
  8 23  1  0
  9 24  1  0
 12 25  1  0
 12 26  1  0
 12 27  1  0
 13 28  1  0
 15 29  1  0
 16 30  1  0
 17 31  1  0
 19 32  1  0
 19 33  1  0
 19 34  1  0
M  END
$$$$

     RDKit          3D

 30 31  0  0  0  0  0  0  0  0999 V2000
    1.3350    1.4632   -0.6410 N   0  0  0  0  0  0  0  0  0  0  0  0
    2.4313    0.6495   -0.4603 C   0  0  0  0  0  0  0  0  0  0  0  0
    0.5496    1.8148    0.4381 C   0  0  0  0  0  0  0  0  0  0  0  0
   -0.7505    1.0979    0.4826 C   0  0  0  0  0  0  0  0  0  0  0  0
    0.8484    2.6600    1.2733 O   0  0  0  0  0  0  0  0  0  0  0  0
   -1.8084    1.6728   -0.1223 C   0  0  0  0  0  0  0  0  0  0  0  0
   -0.8516   -0.2565    1.0052 C   0  0  0  0  0  0  0  0  0  0  0  0
   -2.9618    0.8563   -0.4682 C   0  0  0  0  0  0  0  0  0  0  0  0
   -1.9535   -0.9864    0.7507 C   0  0  0  0  0  0  0  0  0  0  0  0
   -3.0458   -0.4113   -0.0211 C   0  0  0  0  0  0  0  0  0  0  0  0
   -3.9407   -1.3168   -0.5427 O   0  0  0  0  0  0  0  0  0  0  0  0
   -5.1134   -1.3696    0.2678 C   0  0  0  0  0  0  0  0  0  0  0  0
    3.5902    1.1236    0.0371 C   0  0  0  0  0  0  0  0  0  0  0  0
    2.3837   -0.7135   -0.9721 C   0  0  0  0  0  0  0  0  0  0  0  0
    4.7650    0.2667    0.0970 C   0  0  0  0  0  0  0  0  0  0  0  0
    3.4676   -1.5050   -0.9281 C   0  0  0  0  0  0  0  0  0  0  0  0
    1.2312   -1.1646   -1.5089 F   0  0  0  0  0  0  0  0  0  0  0  0
    4.7062   -0.9963   -0.3635 C   0  0  0  0  0  0  0  0  0  0  0  0
    0.8185    1.2832   -1.4963 H   0  0  0  0  0  0  0  0  0  0  0  0
   -1.8825    2.7494   -0.2417 H   0  0  0  0  0  0  0  0  0  0  0  0
   -0.0271   -0.6545    1.5869 H   0  0  0  0  0  0  0  0  0  0  0  0
   -3.7813    1.3172   -1.0079 H   0  0  0  0  0  0  0  0  0  0  0  0
   -2.0554   -2.0020    1.1165 H   0  0  0  0  0  0  0  0  0  0  0  0
   -5.7899   -2.1120   -0.1660 H   0  0  0  0  0  0  0  0  0  0  0  0
   -5.6283   -0.4026    0.2764 H   0  0  0  0  0  0  0  0  0  0  0  0
   -4.8733   -1.6827    1.2899 H   0  0  0  0  0  0  0  0  0  0  0  0
    3.6562    2.1177    0.4697 H   0  0  0  0  0  0  0  0  0  0  0  0
    5.6750    0.6723    0.5273 H   0  0  0  0  0  0  0  0  0  0  0  0
    3.4372   -2.5172   -1.3125 H   0  0  0  0  0  0  0  0  0  0  0  0
    5.5686   -1.6537   -0.3257 H   0  0  0  0  0  0  0  0  0  0  0  0
  1  2  1  0
  3  1  1  0
  3  4  1  0
  3  5  2  0
  4  6  2  0
  7  4  1  0
  6  8  1  0
  9  7  2  0
  8 10  2  0
 10  9  1  0
 11 10  1  0
 11 12  1  0
  2 13  2  0
 14  2  1  0
 13 15  1  0
 16 14  2  0
 14 17  1  0
 15 18  2  0
 18 16  1  0
  1 19  1  0
  6 20  1  0
  7 21  1  0
  8 22  1  0
  9 23  1  0
 12 24  1  0
 12 25  1  0
 12 26  1  0
 13 27  1  0
 15 28  1  0
 16 29  1  0
 18 30  1  0
M  END
$$$$

     RDKit          3D

 30 31  0  0  0  0  0  0  0  0999 V2000
   -1.2293   -1.1809    1.1968 N   0  0  0  0  0  0  0  0  0  0  0  0
   -2.0592   -0.1409    0.8459 C   0  0  0  0  0  0  0  0  0  0  0  0
   -0.7615   -2.0506    0.2367 C   0  0  0  0  0  0  0  0  0  0  0  0
    0.5228   -1.6303   -0.3730 C   0  0  0  0  0  0  0  0  0  0  0  0
   -1.3188   -3.1002   -0.0534 O   0  0  0  0  0  0  0  0  0  0  0  0
    1.6696   -1.9743    0.2454 C   0  0  0  0  0  0  0  0  0  0  0  0
    0.5507   -0.7245   -1.5148 C   0  0  0  0  0  0  0  0  0  0  0  0
    2.9075   -1.3000   -0.1104 C   0  0  0  0  0  0  0  0  0  0  0  0
    1.6962   -0.0991   -1.8448 C   0  0  0  0  0  0  0  0  0  0  0  0
    2.9063   -0.3539   -1.0759 C   0  0  0  0  0  0  0  0  0  0  0  0
    4.0629    0.1839   -1.5941 O   0  0  0  0  0  0  0  0  0  0  0  0
    4.4579    1.3268   -0.8347 C   0  0  0  0  0  0  0  0  0  0  0  0
   -3.3211   -0.3482    0.4107 C   0  0  0  0  0  0  0  0  0  0  0  0
   -1.6625    1.1866    1.2962 C   0  0  0  0  0  0  0  0  0  0  0  0
   -4.3109    0.7131    0.5187 C   0  0  0  0  0  0  0  0  0  0  0  0
   -2.5738    2.1752    1.3730 C   0  0  0  0  0  0  0  0  0  0  0  0
   -3.9433    1.9181    0.9824 C   0  0  0  0  0  0  0  0  0  0  0  0
   -4.8412    2.9182    1.0925 F   0  0  0  0  0  0  0  0  0  0  0  0
   -1.5401   -1.6735    2.0334 H   0  0  0  0  0  0  0  0  0  0  0  0
    1.7258   -2.8421    0.8941 H   0  0  0  0  0  0  0  0  0  0  0  0
   -0.3636   -0.5720   -2.0792 H   0  0  0  0  0  0  0  0  0  0  0  0
    3.8348   -1.6429    0.3391 H   0  0  0  0  0  0  0  0  0  0  0  0
    1.7510    0.5752   -2.6941 H   0  0  0  0  0  0  0  0  0  0  0  0
    5.3428    1.7612   -1.3089 H   0  0  0  0  0  0  0  0  0  0  0  0
    3.6656    2.0834   -0.8163 H   0  0  0  0  0  0  0  0  0  0  0  0
    4.7272    1.0343    0.1862 H   0  0  0  0  0  0  0  0  0  0  0  0
   -3.6243   -1.2871   -0.0446 H   0  0  0  0  0  0  0  0  0  0  0  0
   -0.6239    1.3583    1.5707 H   0  0  0  0  0  0  0  0  0  0  0  0
   -5.3310    0.5162    0.2193 H   0  0  0  0  0  0  0  0  0  0  0  0
   -2.3166    3.1700    1.7165 H   0  0  0  0  0  0  0  0  0  0  0  0
  1  2  1  0
  3  1  1  0
  3  4  1  0
  3  5  2  0
  4  6  2  0
  7  4  1  0
  6  8  1  0
  9  7  2  0
  8 10  2  0
 10  9  1  0
 11 10  1  0
 11 12  1  0
  2 13  2  0
 14  2  1  0
 13 15  1  0
 16 14  2  0
 15 17  2  0
 17 16  1  0
 17 18  1  0
  1 19  1  0
  6 20  1  0
  7 21  1  0
  8 22  1  0
  9 23  1  0
 12 24  1  0
 12 25  1  0
 12 26  1  0
 13 27  1  0
 14 28  1  0
 15 29  1  0
 16 30  1  0
M  END
$$$$

     RDKit          3D

 30 31  0  0  0  0  0  0  0  0999 V2000
   -1.3579    0.1905   -1.6696 N   0  0  0  0  0  0  0  0  0  0  0  0
   -2.3121    0.1361   -0.6874 C   0  0  0  0  0  0  0  0  0  0  0  0
   -0.4546    1.2271   -1.7397 C   0  0  0  0  0  0  0  0  0  0  0  0
    0.8324    0.9395   -1.0549 C   0  0  0  0  0  0  0  0  0  0  0  0
   -0.6425    2.2746   -2.3460 O   0  0  0  0  0  0  0  0  0  0  0  0
    0.9498    1.2730    0.2451 C   0  0  0  0  0  0  0  0  0  0  0  0
    1.8555    0.1225   -1.6924 C   0  0  0  0  0  0  0  0  0  0  0  0
    1.9157    0.5700    1.0749 C   0  0  0  0  0  0  0  0  0  0  0  0
    2.8010   -0.4648   -0.9353 C   0  0  0  0  0  0  0  0  0  0  0  0
    2.8094   -0.2626    0.5073 C   0  0  0  0  0  0  0  0  0  0  0  0
    3.4733   -1.2278    1.2296 O   0  0  0  0  0  0  0  0  0  0  0  0
    4.7604   -0.7492    1.6165 C   0  0  0  0  0  0  0  0  0  0  0  0
   -3.5151    0.7160   -0.8559 C   0  0  0  0  0  0  0  0  0  0  0  0
   -2.1115   -0.7987    0.4120 C   0  0  0  0  0  0  0  0  0  0  0  0
   -4.6436    0.3055   -0.0372 C   0  0  0  0  0  0  0  0  0  0  0  0
   -3.1482   -1.1498    1.1949 C   0  0  0  0  0  0  0  0  0  0  0  0
   -4.4666   -0.5915    0.9488 C   0  0  0  0  0  0  0  0  0  0  0  0
   -1.0635   -0.6938   -2.0644 H   0  0  0  0  0  0  0  0  0  0  0  0
    0.3720    2.0803    0.6840 H   0  0  0  0  0  0  0  0  0  0  0  0
    1.8399    0.0144   -2.7716 H   0  0  0  0  0  0  0  0  0  0  0  0
    1.9267    0.7697    2.1402 H   0  0  0  0  0  0  0  0  0  0  0  0
    3.5809   -1.0759   -1.3758 H   0  0  0  0  0  0  0  0  0  0  0  0
    4.6725    0.1130    2.2866 H   0  0  0  0  0  0  0  0  0  0  0  0
    5.2704   -1.5518    2.1576 H   0  0  0  0  0  0  0  0  0  0  0  0
    5.3652   -0.4898    0.7402 H   0  0  0  0  0  0  0  0  0  0  0  0
   -3.6601    1.5242   -1.5658 H   0  0  0  0  0  0  0  0  0  0  0  0
   -1.1189   -1.1960    0.5955 H   0  0  0  0  0  0  0  0  0  0  0  0
   -5.6144    0.7454   -0.2386 H   0  0  0  0  0  0  0  0  0  0  0  0
   -3.0246   -1.8402    2.0224 H   0  0  0  0  0  0  0  0  0  0  0  0
   -5.2915   -0.9098    1.5777 H   0  0  0  0  0  0  0  0  0  0  0  0
  1  2  1  0
  3  1  1  0
  3  4  1  0
  3  5  2  0
  4  6  2  0
  7  4  1  0
  6  8  1  0
  9  7  2  0
  8 10  2  0
 10  9  1  0
 11 10  1  0
 11 12  1  0
  2 13  2  0
 14  2  1  0
 13 15  1  0
 16 14  2  0
 15 17  2  0
 17 16  1  0
  1 18  1  0
  6 19  1  0
  7 20  1  0
  8 21  1  0
  9 22  1  0
 12 23  1  0
 12 24  1  0
 12 25  1  0
 13 26  1  0
 14 27  1  0
 15 28  1  0
 16 29  1  0
 17 30  1  0
M  END
$$$$

     RDKit          3D

 30 31  0  0  0  0  0  0  0  0999 V2000
   -1.0757    1.6152    0.4955 N   0  0  0  0  0  0  0  0  0  0  0  0
   -2.3072    1.0702    0.2091 C   0  0  0  0  0  0  0  0  0  0  0  0
   -0.3675    1.1790    1.5979 C   0  0  0  0  0  0  0  0  0  0  0  0
    0.8584    0.4167    1.2485 C   0  0  0  0  0  0  0  0  0  0  0  0
   -0.6723    1.4105    2.7616 O   0  0  0  0  0  0  0  0  0  0  0  0
    2.0071    1.1066    1.1079 C   0  0  0  0  0  0  0  0  0  0  0  0
    0.7927   -0.9830    0.8561 C   0  0  0  0  0  0  0  0  0  0  0  0
    3.0925    0.5315    0.3281 C   0  0  0  0  0  0  0  0  0  0  0  0
    1.8284   -1.5379    0.1995 C   0  0  0  0  0  0  0  0  0  0  0  0
    3.0151   -0.7461   -0.0913 C   0  0  0  0  0  0  0  0  0  0  0  0
    3.8227   -1.2402   -1.0898 O   0  0  0  0  0  0  0  0  0  0  0  0
    4.9431   -1.9179   -0.5237 C   0  0  0  0  0  0  0  0  0  0  0  0
   -3.4212    1.4675    0.8566 C   0  0  0  0  0  0  0  0  0  0  0  0
   -2.4298    0.1803   -0.9402 C   0  0  0  0  0  0  0  0  0  0  0  0
   -4.7269    0.9994    0.4144 C   0  0  0  0  0  0  0  0  0  0  0  0
   -3.6315   -0.2530   -1.3526 C   0  0  0  0  0  0  0  0  0  0  0  0
   -1.3103   -0.1892   -1.5958 F   0  0  0  0  0  0  0  0  0  0  0  0
   -4.8160    0.1739   -0.6411 C   0  0  0  0  0  0  0  0  0  0  0  0
   -6.0129   -0.2756   -1.0649 F   0  0  0  0  0  0  0  0  0  0  0  0
   -0.5047    1.8133   -0.3208 H   0  0  0  0  0  0  0  0  0  0  0  0
    2.1978    2.0175    1.6672 H   0  0  0  0  0  0  0  0  0  0  0  0
   -0.0985   -1.5522    1.0976 H   0  0  0  0  0  0  0  0  0  0  0  0
    3.9927    1.1174    0.1805 H   0  0  0  0  0  0  0  0  0  0  0  0
    1.8078   -2.5754   -0.1151 H   0  0  0  0  0  0  0  0  0  0  0  0
    5.5636   -1.2298    0.0608 H   0  0  0  0  0  0  0  0  0  0  0  0
    5.5501   -2.3103   -1.3448 H   0  0  0  0  0  0  0  0  0  0  0  0
    4.6217   -2.7617    0.0968 H   0  0  0  0  0  0  0  0  0  0  0  0
   -3.3680    2.0636    1.7632 H   0  0  0  0  0  0  0  0  0  0  0  0
   -5.6110    1.3184    0.9540 H   0  0  0  0  0  0  0  0  0  0  0  0
   -3.7401   -0.9087   -2.2063 H   0  0  0  0  0  0  0  0  0  0  0  0
  1  2  1  0
  3  1  1  0
  3  4  1  0
  3  5  2  0
  4  6  2  0
  7  4  1  0
  6  8  1  0
  9  7  2  0
  8 10  2  0
 10  9  1  0
 11 10  1  0
 11 12  1  0
  2 13  2  0
 14  2  1  0
 13 15  1  0
 16 14  2  0
 14 17  1  0
 15 18  2  0
 18 16  1  0
 18 19  1  0
  1 20  1  0
  6 21  1  0
  7 22  1  0
  8 23  1  0
  9 24  1  0
 12 25  1  0
 12 26  1  0
 12 27  1  0
 13 28  1  0
 15 29  1  0
 16 30  1  0
M  END
$$$$

     RDKit          3D

 36 37  0  0  0  0  0  0  0  0999 V2000
    1.7191   -0.3485   -2.0999 N   0  0  0  0  0  0  0  0  0  0  0  0
    2.6202    0.0610   -1.1396 C   0  0  0  0  0  0  0  0  0  0  0  0
    1.1012   -1.5776   -1.9865 C   0  0  0  0  0  0  0  0  0  0  0  0
   -0.2034   -1.5311   -1.2760 C   0  0  0  0  0  0  0  0  0  0  0  0
    1.5431   -2.6216   -2.4521 O   0  0  0  0  0  0  0  0  0  0  0  0
   -0.2070   -1.7190    0.0575 C   0  0  0  0  0  0  0  0  0  0  0  0
   -1.4067   -1.0573   -1.9409 C   0  0  0  0  0  0  0  0  0  0  0  0
   -1.3020   -1.1766    0.8476 C   0  0  0  0  0  0  0  0  0  0  0  0
   -2.4059   -0.5372   -1.2043 C   0  0  0  0  0  0  0  0  0  0  0  0
   -2.2713   -0.4468    0.2518 C   0  0  0  0  0  0  0  0  0  0  0  0
   -3.1393    0.5613    0.9785 C   0  0  0  0  0  0  0  0  0  0  0  0
   -4.1083   -0.1262    1.9438 C   0  0  0  0  0  0  0  0  0  0  0  0
   -2.3010    1.6138    1.7109 C   0  0  0  0  0  0  0  0  0  0  0  0
    3.8160   -0.5348   -0.9740 C   0  0  0  0  0  0  0  0  0  0  0  0
    2.2422    1.1744   -0.2754 C   0  0  0  0  0  0  0  0  0  0  0  0
    4.6409   -0.2140    0.1877 C   0  0  0  0  0  0  0  0  0  0  0  0
    3.0174    1.5095    0.7714 C   0  0  0  0  0  0  0  0  0  0  0  0
    1.0812    1.8286   -0.6172 O   0  0  0  0  0  0  0  0  0  0  0  0
    6.3923   -1.2493    0.5305 I   0  0  0  0  0  0  0  0  0  0  0  0
    4.2455    0.7692    1.0237 C   0  0  0  0  0  0  0  0  0  0  0  0
    1.0790    0.3988   -2.3568 H   0  0  0  0  0  0  0  0  0  0  0  0
    0.4895   -2.4021    0.5332 H   0  0  0  0  0  0  0  0  0  0  0  0
   -1.4842   -1.1651   -3.0173 H   0  0  0  0  0  0  0  0  0  0  0  0
   -1.3830   -1.4971    1.8811 H   0  0  0  0  0  0  0  0  0  0  0  0
   -3.3275   -0.2056   -1.6718 H   0  0  0  0  0  0  0  0  0  0  0  0
   -3.7526    1.1024    0.2447 H   0  0  0  0  0  0  0  0  0  0  0  0
   -4.7976    0.6065    2.3777 H   0  0  0  0  0  0  0  0  0  0  0  0
   -3.5837   -0.6200    2.7688 H   0  0  0  0  0  0  0  0  0  0  0  0
   -4.7151   -0.8759    1.4240 H   0  0  0  0  0  0  0  0  0  0  0  0
   -1.5744    2.0779    1.0348 H   0  0  0  0  0  0  0  0  0  0  0  0
   -2.9443    2.4130    2.0954 H   0  0  0  0  0  0  0  0  0  0  0  0
   -1.7565    1.1854    2.5597 H   0  0  0  0  0  0  0  0  0  0  0  0
    4.1680   -1.2771   -1.6839 H   0  0  0  0  0  0  0  0  0  0  0  0
    2.7754    2.3293    1.4371 H   0  0  0  0  0  0  0  0  0  0  0  0
    0.9066    2.5026    0.0616 H   0  0  0  0  0  0  0  0  0  0  0  0
    4.8260    1.0491    1.8976 H   0  0  0  0  0  0  0  0  0  0  0  0
  1  2  1  0
  3  1  1  0
  3  4  1  0
  3  5  2  0
  4  6  2  0
  7  4  1  0
  6  8  1  0
  9  7  2  0
  8 10  2  0
 10  9  1  0
 11 10  1  0
 11 12  1  0
 11 13  1  0
  2 14  2  0
 15  2  1  0
 14 16  1  0
 17 15  2  0
 15 18  1  0
 16 19  1  0
 16 20  2  0
 20 17  1  0
  1 21  1  0
  6 22  1  0
  7 23  1  0
  8 24  1  0
  9 25  1  0
 11 26  1  0
 12 27  1  0
 12 28  1  0
 12 29  1  0
 13 30  1  0
 13 31  1  0
 13 32  1  0
 14 33  1  0
 17 34  1  0
 18 35  1  0
 20 36  1  0
M  END
$$$$

     RDKit          3D

 35 36  0  0  0  0  0  0  0  0999 V2000
    1.6094    1.5968   -1.6308 N   0  0  0  0  0  0  0  0  0  0  0  0
    2.7337    1.1237   -0.9881 C   0  0  0  0  0  0  0  0  0  0  0  0
    0.8592    0.7728   -2.4437 C   0  0  0  0  0  0  0  0  0  0  0  0
   -0.2716    0.1127   -1.7443 C   0  0  0  0  0  0  0  0  0  0  0  0
    1.0572    0.6158   -3.6424 O   0  0  0  0  0  0  0  0  0  0  0  0
   -1.4368    0.7818   -1.6537 C   0  0  0  0  0  0  0  0  0  0  0  0
   -0.0892   -1.1303   -1.0143 C   0  0  0  0  0  0  0  0  0  0  0  0
   -2.3885    0.4127   -0.6156 C   0  0  0  0  0  0  0  0  0  0  0  0
   -0.9773   -1.4773   -0.0653 C   0  0  0  0  0  0  0  0  0  0  0  0
   -2.1190   -0.6074    0.2302 C   0  0  0  0  0  0  0  0  0  0  0  0
   -2.8836   -0.8640    1.5162 C   0  0  0  0  0  0  0  0  0  0  0  0
   -4.3365   -1.2596    1.2383 C   0  0  0  0  0  0  0  0  0  0  0  0
   -2.8203    0.3356    2.4650 C   0  0  0  0  0  0  0  0  0  0  0  0
    3.8233    0.7552   -1.6909 C   0  0  0  0  0  0  0  0  0  0  0  0
    2.7304    0.9525    0.4726 C   0  0  0  0  0  0  0  0  0  0  0  0
    4.8504   -0.0600   -1.0667 C   0  0  0  0  0  0  0  0  0  0  0  0
    3.7292    0.2574    1.0560 C   0  0  0  0  0  0  0  0  0  0  0  0
    1.3777    1.7397    1.4976 Br  0  0  0  0  0  0  0  0  0  0  0  0
    4.8040   -0.3028    0.2550 C   0  0  0  0  0  0  0  0  0  0  0  0
    1.0667    2.2704   -1.0997 H   0  0  0  0  0  0  0  0  0  0  0  0
   -1.7752    1.4372   -2.4518 H   0  0  0  0  0  0  0  0  0  0  0  0
    0.7558   -1.7619   -1.2670 H   0  0  0  0  0  0  0  0  0  0  0  0
   -3.3702    0.8767   -0.6534 H   0  0  0  0  0  0  0  0  0  0  0  0
   -0.8692   -2.4117    0.4767 H   0  0  0  0  0  0  0  0  0  0  0  0
   -2.4227   -1.7083    2.0469 H   0  0  0  0  0  0  0  0  0  0  0  0
   -4.8202   -1.6071    2.1589 H   0  0  0  0  0  0  0  0  0  0  0  0
   -4.9226   -0.4198    0.8492 H   0  0  0  0  0  0  0  0  0  0  0  0
   -4.3900   -2.0798    0.5141 H   0  0  0  0  0  0  0  0  0  0  0  0
   -3.2294    0.0672    3.4450 H   0  0  0  0  0  0  0  0  0  0  0  0
   -1.7854    0.6573    2.6228 H   0  0  0  0  0  0  0  0  0  0  0  0
   -3.3907    1.1899    2.0853 H   0  0  0  0  0  0  0  0  0  0  0  0
    3.9248    0.9910   -2.7465 H   0  0  0  0  0  0  0  0  0  0  0  0
    5.6413   -0.4620   -1.6909 H   0  0  0  0  0  0  0  0  0  0  0  0
    3.7744    0.1117    2.1305 H   0  0  0  0  0  0  0  0  0  0  0  0
    5.5609   -0.9061    0.7480 H   0  0  0  0  0  0  0  0  0  0  0  0
  1  2  1  0
  3  1  1  0
  3  4  1  0
  3  5  2  0
  4  6  2  0
  7  4  1  0
  6  8  1  0
  9  7  2  0
  8 10  2  0
 10  9  1  0
 11 10  1  0
 11 12  1  0
 11 13  1  0
  2 14  2  0
 15  2  1  0
 14 16  1  0
 17 15  2  0
 15 18  1  0
 16 19  2  0
 19 17  1  0
  1 20  1  0
  6 21  1  0
  7 22  1  0
  8 23  1  0
  9 24  1  0
 11 25  1  0
 12 26  1  0
 12 27  1  0
 12 28  1  0
 13 29  1  0
 13 30  1  0
 13 31  1  0
 14 32  1  0
 16 33  1  0
 17 34  1  0
 19 35  1  0
M  END
$$$$

     RDKit          3D

 38 39  0  0  0  0  0  0  0  0999 V2000
   -0.9797   -0.0547   -2.0655 N   0  0  0  0  0  0  0  0  0  0  0  0
   -2.0435   -0.1050   -1.2021 C   0  0  0  0  0  0  0  0  0  0  0  0
   -0.3330    1.1303   -2.3382 C   0  0  0  0  0  0  0  0  0  0  0  0
    0.8514    1.3723   -1.4757 C   0  0  0  0  0  0  0  0  0  0  0  0
   -0.6516    1.9086   -3.2289 O   0  0  0  0  0  0  0  0  0  0  0  0
    2.0109    0.7753   -1.8111 C   0  0  0  0  0  0  0  0  0  0  0  0
    0.7185    2.0074   -0.1747 C   0  0  0  0  0  0  0  0  0  0  0  0
    2.9830    0.4821   -0.7669 C   0  0  0  0  0  0  0  0  0  0  0  0
    1.6178    1.7314    0.7876 C   0  0  0  0  0  0  0  0  0  0  0  0
    2.7098    0.7923    0.5205 C   0  0  0  0  0  0  0  0  0  0  0  0
    3.3570    0.1121    1.7114 C   0  0  0  0  0  0  0  0  0  0  0  0
    3.1001   -1.3977    1.7090 C   0  0  0  0  0  0  0  0  0  0  0  0
    4.8578    0.4055    1.7863 C   0  0  0  0  0  0  0  0  0  0  0  0
   -1.9223   -0.6170    0.0369 C   0  0  0  0  0  0  0  0  0  0  0  0
   -3.3681    0.1037   -1.7636 C   0  0  0  0  0  0  0  0  0  0  0  0
   -3.0965   -1.1055    0.7425 C   0  0  0  0  0  0  0  0  0  0  0  0
   -4.4600   -0.3096   -1.0948 C   0  0  0  0  0  0  0  0  0  0  0  0
   -4.3251   -0.9610    0.2052 C   0  0  0  0  0  0  0  0  0  0  0  0
   -5.5797   -1.4283    0.8762 C   0  0  0  0  0  0  0  0  0  0  0  0
   -0.4169   -0.8935   -2.1331 H   0  0  0  0  0  0  0  0  0  0  0  0
    2.3384    0.7309   -2.8455 H   0  0  0  0  0  0  0  0  0  0  0  0
   -0.0944    2.7087   -0.0203 H   0  0  0  0  0  0  0  0  0  0  0  0
    3.9822    0.1935   -1.0795 H   0  0  0  0  0  0  0  0  0  0  0  0
    1.5566    2.2121    1.7585 H   0  0  0  0  0  0  0  0  0  0  0  0
    2.9125    0.5063    2.6352 H   0  0  0  0  0  0  0  0  0  0  0  0
    3.6451   -1.9043    0.9046 H   0  0  0  0  0  0  0  0  0  0  0  0
    2.0328   -1.6154    1.5911 H   0  0  0  0  0  0  0  0  0  0  0  0
    3.4184   -1.8389    2.6599 H   0  0  0  0  0  0  0  0  0  0  0  0
    5.0543    1.4813    1.7168 H   0  0  0  0  0  0  0  0  0  0  0  0
    5.2643    0.0613    2.7439 H   0  0  0  0  0  0  0  0  0  0  0  0
    5.4145   -0.0972    0.9882 H   0  0  0  0  0  0  0  0  0  0  0  0
   -0.9757   -0.6178    0.5666 H   0  0  0  0  0  0  0  0  0  0  0  0
   -3.4518    0.6055   -2.7228 H   0  0  0  0  0  0  0  0  0  0  0  0
   -2.9475   -1.5711    1.7113 H   0  0  0  0  0  0  0  0  0  0  0  0
   -5.4521   -0.1540   -1.5061 H   0  0  0  0  0  0  0  0  0  0  0  0
   -6.0942   -2.1695    0.2555 H   0  0  0  0  0  0  0  0  0  0  0  0
   -5.3728   -1.8926    1.8468 H   0  0  0  0  0  0  0  0  0  0  0  0
   -6.2605   -0.5875    1.0489 H   0  0  0  0  0  0  0  0  0  0  0  0
  1  2  1  0
  3  1  1  0
  3  4  1  0
  3  5  2  0
  4  6  2  0
  7  4  1  0
  6  8  1  0
  9  7  2  0
  8 10  2  0
 10  9  1  0
 11 10  1  0
 11 12  1  0
 11 13  1  0
  2 14  2  0
 15  2  1  0
 14 16  1  0
 17 15  2  0
 16 18  2  0
 18 17  1  0
 18 19  1  0
  1 20  1  0
  6 21  1  0
  7 22  1  0
  8 23  1  0
  9 24  1  0
 11 25  1  0
 12 26  1  0
 12 27  1  0
 12 28  1  0
 13 29  1  0
 13 30  1  0
 13 31  1  0
 14 32  1  0
 15 33  1  0
 16 34  1  0
 17 35  1  0
 19 36  1  0
 19 37  1  0
 19 38  1  0
M  END
$$$$

     RDKit          3D

 35 36  0  0  0  0  0  0  0  0999 V2000
    1.6790    2.2067   -0.1397 N   0  0  0  0  0  0  0  0  0  0  0  0
    2.7250    1.3135   -0.2366 C   0  0  0  0  0  0  0  0  0  0  0  0
    0.9674    2.3292    1.0371 C   0  0  0  0  0  0  0  0  0  0  0  0
   -0.2827    1.5288    1.0652 C   0  0  0  0  0  0  0  0  0  0  0  0
    1.2938    3.0483    1.9743 O   0  0  0  0  0  0  0  0  0  0  0  0
   -1.3894    2.0590    0.5139 C   0  0  0  0  0  0  0  0  0  0  0  0
   -0.2771    0.1369    1.4793 C   0  0  0  0  0  0  0  0  0  0  0  0
   -2.4608    1.1747    0.0779 C   0  0  0  0  0  0  0  0  0  0  0  0
   -1.2719   -0.6768    1.0814 C   0  0  0  0  0  0  0  0  0  0  0  0
   -2.3513   -0.1623    0.2368 C   0  0  0  0  0  0  0  0  0  0  0  0
   -3.2709   -1.1338   -0.4762 C   0  0  0  0  0  0  0  0  0  0  0  0
   -4.1523   -1.9096    0.5066 C   0  0  0  0  0  0  0  0  0  0  0  0
   -2.5077   -2.0920   -1.3969 C   0  0  0  0  0  0  0  0  0  0  0  0
    3.8892    1.5370    0.4051 C   0  0  0  0  0  0  0  0  0  0  0  0
    2.6008    0.1338   -1.0987 C   0  0  0  0  0  0  0  0  0  0  0  0
    4.9463    0.5406    0.3781 C   0  0  0  0  0  0  0  0  0  0  0  0
    3.6007   -0.7670   -1.1541 C   0  0  0  0  0  0  0  0  0  0  0  0
    1.1928   -0.0789   -2.0721 Cl  0  0  0  0  0  0  0  0  0  0  0  0
    4.8066   -0.5695   -0.3676 C   0  0  0  0  0  0  0  0  0  0  0  0
    1.1146    2.2877   -0.9807 H   0  0  0  0  0  0  0  0  0  0  0  0
   -1.6144    3.1169    0.6143 H   0  0  0  0  0  0  0  0  0  0  0  0
    0.5303   -0.2168    2.1127 H   0  0  0  0  0  0  0  0  0  0  0  0
   -3.4116    1.6336   -0.1760 H   0  0  0  0  0  0  0  0  0  0  0  0
   -1.2901   -1.7153    1.3909 H   0  0  0  0  0  0  0  0  0  0  0  0
   -3.9502   -0.5593   -1.1217 H   0  0  0  0  0  0  0  0  0  0  0  0
   -3.5861   -2.6773    1.0469 H   0  0  0  0  0  0  0  0  0  0  0  0
   -4.9635   -2.4120   -0.0324 H   0  0  0  0  0  0  0  0  0  0  0  0
   -4.6146   -1.2399    1.2414 H   0  0  0  0  0  0  0  0  0  0  0  0
   -1.8422   -1.5443   -2.0738 H   0  0  0  0  0  0  0  0  0  0  0  0
   -3.2106   -2.6582   -2.0180 H   0  0  0  0  0  0  0  0  0  0  0  0
   -1.9069   -2.8122   -0.8316 H   0  0  0  0  0  0  0  0  0  0  0  0
    4.0460    2.4338    0.9974 H   0  0  0  0  0  0  0  0  0  0  0  0
    5.8357    0.7163    0.9721 H   0  0  0  0  0  0  0  0  0  0  0  0
    3.5446   -1.6435   -1.7896 H   0  0  0  0  0  0  0  0  0  0  0  0
    5.5814   -1.3281   -0.4050 H   0  0  0  0  0  0  0  0  0  0  0  0
  1  2  1  0
  3  1  1  0
  3  4  1  0
  3  5  2  0
  4  6  2  0
  7  4  1  0
  6  8  1  0
  9  7  2  0
  8 10  2  0
 10  9  1  0
 11 10  1  0
 11 12  1  0
 11 13  1  0
  2 14  2  0
 15  2  1  0
 14 16  1  0
 17 15  2  0
 15 18  1  0
 16 19  2  0
 19 17  1  0
  1 20  1  0
  6 21  1  0
  7 22  1  0
  8 23  1  0
  9 24  1  0
 11 25  1  0
 12 26  1  0
 12 27  1  0
 12 28  1  0
 13 29  1  0
 13 30  1  0
 13 31  1  0
 14 32  1  0
 16 33  1  0
 17 34  1  0
 19 35  1  0
M  END
$$$$

     RDKit          3D

 35 36  0  0  0  0  0  0  0  0999 V2000
    1.5909   -1.7337   -1.6344 N   0  0  0  0  0  0  0  0  0  0  0  0
    2.6440   -0.9242   -1.2673 C   0  0  0  0  0  0  0  0  0  0  0  0
    0.9491   -2.5204   -0.6991 C   0  0  0  0  0  0  0  0  0  0  0  0
   -0.2922   -1.9118   -0.1580 C   0  0  0  0  0  0  0  0  0  0  0  0
    1.3213   -3.6375   -0.3615 O   0  0  0  0  0  0  0  0  0  0  0  0
   -0.1951   -1.1385    0.9394 C   0  0  0  0  0  0  0  0  0  0  0  0
   -1.5321   -1.9381   -0.9162 C   0  0  0  0  0  0  0  0  0  0  0  0
   -1.2055   -0.1211    1.1839 C   0  0  0  0  0  0  0  0  0  0  0  0
   -2.4703   -1.0028   -0.6819 C   0  0  0  0  0  0  0  0  0  0  0  0
   -2.2430    0.0316    0.3304 C   0  0  0  0  0  0  0  0  0  0  0  0
   -3.1627    1.2384    0.3228 C   0  0  0  0  0  0  0  0  0  0  0  0
   -4.0499    1.2714    1.5708 C   0  0  0  0  0  0  0  0  0  0  0  0
   -2.3893    2.5524    0.1753 C   0  0  0  0  0  0  0  0  0  0  0  0
    3.8330   -1.4522   -0.9150 C   0  0  0  0  0  0  0  0  0  0  0  0
    2.4660    0.5299   -1.2144 C   0  0  0  0  0  0  0  0  0  0  0  0
    4.8282   -0.6261   -0.2506 C   0  0  0  0  0  0  0  0  0  0  0  0
    3.4144    1.3036   -0.6534 C   0  0  0  0  0  0  0  0  0  0  0  0
    1.0597    1.2512   -1.9113 Cl  0  0  0  0  0  0  0  0  0  0  0  0
    4.6227    0.6965   -0.1220 C   0  0  0  0  0  0  0  0  0  0  0  0
    5.7791    1.7085    0.6506 Cl  0  0  0  0  0  0  0  0  0  0  0  0
    0.9807   -1.3430   -2.3445 H   0  0  0  0  0  0  0  0  0  0  0  0
    0.5234   -1.3543    1.7242 H   0  0  0  0  0  0  0  0  0  0  0  0
   -1.6850   -2.7333   -1.6369 H   0  0  0  0  0  0  0  0  0  0  0  0
   -1.1677    0.4029    2.1333 H   0  0  0  0  0  0  0  0  0  0  0  0
   -3.4148   -1.0190   -1.2165 H   0  0  0  0  0  0  0  0  0  0  0  0
   -3.8340    1.1716   -0.5440 H   0  0  0  0  0  0  0  0  0  0  0  0
   -3.4773    1.5147    2.4725 H   0  0  0  0  0  0  0  0  0  0  0  0
   -4.8355    2.0273    1.4592 H   0  0  0  0  0  0  0  0  0  0  0  0
   -4.5458    0.3066    1.7289 H   0  0  0  0  0  0  0  0  0  0  0  0
   -3.0829    3.3884    0.0297 H   0  0  0  0  0  0  0  0  0  0  0  0
   -1.7827    2.7745    1.0603 H   0  0  0  0  0  0  0  0  0  0  0  0
   -1.7275    2.5233   -0.6970 H   0  0  0  0  0  0  0  0  0  0  0  0
    4.0459   -2.5096   -1.0459 H   0  0  0  0  0  0  0  0  0  0  0  0
    5.7214   -1.1098    0.1274 H   0  0  0  0  0  0  0  0  0  0  0  0
    3.3132    2.3826   -0.6077 H   0  0  0  0  0  0  0  0  0  0  0  0
  1  2  1  0
  3  1  1  0
  3  4  1  0
  3  5  2  0
  4  6  2  0
  7  4  1  0
  6  8  1  0
  9  7  2  0
  8 10  2  0
 10  9  1  0
 11 10  1  0
 11 12  1  0
 11 13  1  0
  2 14  2  0
 15  2  1  0
 14 16  1  0
 17 15  2  0
 15 18  1  0
 16 19  2  0
 19 17  1  0
 19 20  1  0
  1 21  1  0
  6 22  1  0
  7 23  1  0
  8 24  1  0
  9 25  1  0
 11 26  1  0
 12 27  1  0
 12 28  1  0
 12 29  1  0
 13 30  1  0
 13 31  1  0
 13 32  1  0
 14 33  1  0
 16 34  1  0
 17 35  1  0
M  END
$$$$

     RDKit          3D

 35 36  0  0  0  0  0  0  0  0999 V2000
   -1.7072   -1.0485   -0.9018 N   0  0  0  0  0  0  0  0  0  0  0  0
   -2.7887   -0.5490   -0.2081 C   0  0  0  0  0  0  0  0  0  0  0  0
   -1.2157   -0.3731   -1.9945 C   0  0  0  0  0  0  0  0  0  0  0  0
    0.0750    0.3045   -1.7385 C   0  0  0  0  0  0  0  0  0  0  0  0
   -1.7372   -0.3928   -3.1025 O   0  0  0  0  0  0  0  0  0  0  0  0
    1.1978   -0.3686   -2.0574 C   0  0  0  0  0  0  0  0  0  0  0  0
    0.1634    1.4855   -0.8897 C   0  0  0  0  0  0  0  0  0  0  0  0
    2.4149   -0.1076   -1.3034 C   0  0  0  0  0  0  0  0  0  0  0  0
    1.2735    1.6732   -0.1525 C   0  0  0  0  0  0  0  0  0  0  0  0
    2.3687    0.7029   -0.2241 C   0  0  0  0  0  0  0  0  0  0  0  0
    3.2734    0.5652    0.9868 C   0  0  0  0  0  0  0  0  0  0  0  0
    3.3720   -0.8851    1.4733 C   0  0  0  0  0  0  0  0  0  0  0  0
    4.6660    1.1277    0.6972 C   0  0  0  0  0  0  0  0  0  0  0  0
   -2.6536   -0.1780    1.0802 C   0  0  0  0  0  0  0  0  0  0  0  0
   -4.1205   -0.8074   -0.7454 C   0  0  0  0  0  0  0  0  0  0  0  0
   -3.8124   -0.1874    1.9675 C   0  0  0  0  0  0  0  0  0  0  0  0
   -5.1944   -0.7931    0.0665 C   0  0  0  0  0  0  0  0  0  0  0  0
   -5.0314   -0.4838    1.4787 C   0  0  0  0  0  0  0  0  0  0  0  0
   -6.4263   -0.4896    2.4879 Cl  0  0  0  0  0  0  0  0  0  0  0  0
   -1.7465   -2.0518   -1.0584 H   0  0  0  0  0  0  0  0  0  0  0  0
    1.2581   -0.9866   -2.9458 H   0  0  0  0  0  0  0  0  0  0  0  0
   -0.6648    2.1892   -0.8841 H   0  0  0  0  0  0  0  0  0  0  0  0
    3.3514   -0.5007   -1.6834 H   0  0  0  0  0  0  0  0  0  0  0  0
    1.3891    2.5433    0.4883 H   0  0  0  0  0  0  0  0  0  0  0  0
    2.8532    1.1478    1.8204 H   0  0  0  0  0  0  0  0  0  0  0  0
    3.9343   -1.5130    0.7748 H   0  0  0  0  0  0  0  0  0  0  0  0
    3.8793   -0.9267    2.4445 H   0  0  0  0  0  0  0  0  0  0  0  0
    2.3772   -1.3260    1.6069 H   0  0  0  0  0  0  0  0  0  0  0  0
    5.1918    0.5390   -0.0623 H   0  0  0  0  0  0  0  0  0  0  0  0
    4.6104    2.1656    0.3502 H   0  0  0  0  0  0  0  0  0  0  0  0
    5.2762    1.1225    1.6078 H   0  0  0  0  0  0  0  0  0  0  0  0
   -1.7474    0.3076    1.4348 H   0  0  0  0  0  0  0  0  0  0  0  0
   -4.2257   -0.9986   -1.8072 H   0  0  0  0  0  0  0  0  0  0  0  0
   -3.6631    0.0693    3.0092 H   0  0  0  0  0  0  0  0  0  0  0  0
   -6.1908   -0.9758   -0.3214 H   0  0  0  0  0  0  0  0  0  0  0  0
  1  2  1  0
  3  1  1  0
  3  4  1  0
  3  5  2  0
  4  6  2  0
  7  4  1  0
  6  8  1  0
  9  7  2  0
  8 10  2  0
 10  9  1  0
 11 10  1  0
 11 12  1  0
 11 13  1  0
  2 14  2  0
 15  2  1  0
 14 16  1  0
 17 15  2  0
 16 18  2  0
 18 17  1  0
 18 19  1  0
  1 20  1  0
  6 21  1  0
  7 22  1  0
  8 23  1  0
  9 24  1  0
 11 25  1  0
 12 26  1  0
 12 27  1  0
 12 28  1  0
 13 29  1  0
 13 30  1  0
 13 31  1  0
 14 32  1  0
 15 33  1  0
 16 34  1  0
 17 35  1  0
M  END
$$$$

     RDKit          3D

 36 37  0  0  0  0  0  0  0  0999 V2000
    1.3093   -1.7912    2.0872 N   0  0  0  0  0  0  0  0  0  0  0  0
    2.2737   -0.9301    1.6066 C   0  0  0  0  0  0  0  0  0  0  0  0
    0.6966   -2.6979    1.2452 C   0  0  0  0  0  0  0  0  0  0  0  0
   -0.4137   -2.1253    0.4381 C   0  0  0  0  0  0  0  0  0  0  0  0
    1.0068   -3.8802    1.1634 O   0  0  0  0  0  0  0  0  0  0  0  0
   -1.6155   -1.9705    1.0254 C   0  0  0  0  0  0  0  0  0  0  0  0
   -0.1519   -1.4870   -0.8427 C   0  0  0  0  0  0  0  0  0  0  0  0
   -2.5098   -0.9260    0.5442 C   0  0  0  0  0  0  0  0  0  0  0  0
   -0.9724   -0.5121   -1.2741 C   0  0  0  0  0  0  0  0  0  0  0  0
   -2.1180   -0.1056   -0.4559 C   0  0  0  0  0  0  0  0  0  0  0  0
   -2.7299    1.2670   -0.6576 C   0  0  0  0  0  0  0  0  0  0  0  0
   -3.3488    1.4243   -2.0488 C   0  0  0  0  0  0  0  0  0  0  0  0
   -1.7250    2.3875   -0.3775 C   0  0  0  0  0  0  0  0  0  0  0  0
    3.4403   -1.3684    1.0981 C   0  0  0  0  0  0  0  0  0  0  0  0
    1.9349    0.4868    1.5131 C   0  0  0  0  0  0  0  0  0  0  0  0
    4.2105   -0.5058    0.2142 C   0  0  0  0  0  0  0  0  0  0  0  0
    2.6796    1.3114    0.7465 C   0  0  0  0  0  0  0  0  0  0  0  0
    0.8297    0.8747    2.2416 O   0  0  0  0  0  0  0  0  0  0  0  0
    5.6982   -1.2340   -0.6400 Br  0  0  0  0  0  0  0  0  0  0  0  0
    3.8421    0.7794    0.0463 C   0  0  0  0  0  0  0  0  0  0  0  0
    2.3013    3.1274    0.5453 Br  0  0  0  0  0  0  0  0  0  0  0  0
    0.6568   -1.3245    2.7132 H   0  0  0  0  0  0  0  0  0  0  0  0
   -2.0242   -2.7370    1.6765 H   0  0  0  0  0  0  0  0  0  0  0  0
    0.6964   -1.8248   -1.4290 H   0  0  0  0  0  0  0  0  0  0  0  0
   -3.5424   -0.9542    0.8789 H   0  0  0  0  0  0  0  0  0  0  0  0
   -0.8073   -0.0332   -2.2331 H   0  0  0  0  0  0  0  0  0  0  0  0
   -3.5486    1.3914    0.0653 H   0  0  0  0  0  0  0  0  0  0  0  0
   -2.5861    1.5287   -2.8279 H   0  0  0  0  0  0  0  0  0  0  0  0
   -3.9811    0.5655   -2.3000 H   0  0  0  0  0  0  0  0  0  0  0  0
   -3.9829    2.3175   -2.0822 H   0  0  0  0  0  0  0  0  0  0  0  0
   -1.3146    2.2985    0.6338 H   0  0  0  0  0  0  0  0  0  0  0  0
   -0.8930    2.3807   -1.0892 H   0  0  0  0  0  0  0  0  0  0  0  0
   -2.2119    3.3663   -0.4458 H   0  0  0  0  0  0  0  0  0  0  0  0
    3.8085   -2.3641    1.3269 H   0  0  0  0  0  0  0  0  0  0  0  0
    0.6883    1.8232    2.0621 H   0  0  0  0  0  0  0  0  0  0  0  0
    4.4043    1.4415   -0.6043 H   0  0  0  0  0  0  0  0  0  0  0  0
  1  2  1  0
  3  1  1  0
  3  4  1  0
  3  5  2  0
  4  6  2  0
  7  4  1  0
  6  8  1  0
  9  7  2  0
  8 10  2  0
 10  9  1  0
 11 10  1  0
 11 12  1  0
 11 13  1  0
  2 14  2  0
 15  2  1  0
 14 16  1  0
 17 15  2  0
 15 18  1  0
 16 19  1  0
 16 20  2  0
 20 17  1  0
 17 21  1  0
  1 22  1  0
  6 23  1  0
  7 24  1  0
  8 25  1  0
  9 26  1  0
 11 27  1  0
 12 28  1  0
 12 29  1  0
 12 30  1  0
 13 31  1  0
 13 32  1  0
 13 33  1  0
 14 34  1  0
 18 35  1  0
 20 36  1  0
M  END
$$$$

     RDKit          3D

 35 36  0  0  0  0  0  0  0  0999 V2000
    2.2478   -1.2014   -1.3401 N   0  0  0  0  0  0  0  0  0  0  0  0
    2.9956   -0.7110   -0.2961 C   0  0  0  0  0  0  0  0  0  0  0  0
    1.5251   -0.3357   -2.1306 C   0  0  0  0  0  0  0  0  0  0  0  0
    0.1404   -0.1065   -1.6509 C   0  0  0  0  0  0  0  0  0  0  0  0
    1.9584    0.1605   -3.1625 O   0  0  0  0  0  0  0  0  0  0  0  0
   -0.0982    0.9620   -0.8680 C   0  0  0  0  0  0  0  0  0  0  0  0
   -0.9210   -1.0636   -1.9156 C   0  0  0  0  0  0  0  0  0  0  0  0
   -1.3314    1.0206   -0.0996 C   0  0  0  0  0  0  0  0  0  0  0  0
   -2.1138   -0.9279   -1.3054 C   0  0  0  0  0  0  0  0  0  0  0  0
   -2.3604    0.1963   -0.3981 C   0  0  0  0  0  0  0  0  0  0  0  0
   -3.7798    0.4018    0.0974 C   0  0  0  0  0  0  0  0  0  0  0  0
   -4.3125    1.7979   -0.2435 C   0  0  0  0  0  0  0  0  0  0  0  0
   -3.8886    0.1320    1.6005 C   0  0  0  0  0  0  0  0  0  0  0  0
    4.2096   -0.1592   -0.4868 C   0  0  0  0  0  0  0  0  0  0  0  0
    2.5575   -1.0410    1.0509 C   0  0  0  0  0  0  0  0  0  0  0  0
    5.1438   -0.0610    0.6248 C   0  0  0  0  0  0  0  0  0  0  0  0
    3.4042   -0.9034    2.0893 C   0  0  0  0  0  0  0  0  0  0  0  0
    4.7617   -0.4170    1.8680 C   0  0  0  0  0  0  0  0  0  0  0  0
    5.9097   -0.3066    3.3339 Br  0  0  0  0  0  0  0  0  0  0  0  0
    2.7394   -1.8887   -1.9013 H   0  0  0  0  0  0  0  0  0  0  0  0
    0.6020    1.7893   -0.7942 H   0  0  0  0  0  0  0  0  0  0  0  0
   -0.7272   -1.8773   -2.6064 H   0  0  0  0  0  0  0  0  0  0  0  0
   -1.4064    1.7779    0.6754 H   0  0  0  0  0  0  0  0  0  0  0  0
   -2.9131   -1.6383   -1.4959 H   0  0  0  0  0  0  0  0  0  0  0  0
   -4.4450   -0.3148   -0.4062 H   0  0  0  0  0  0  0  0  0  0  0  0
   -5.3904    1.8508   -0.0503 H   0  0  0  0  0  0  0  0  0  0  0  0
   -3.8260    2.5795    0.3507 H   0  0  0  0  0  0  0  0  0  0  0  0
   -4.1614    2.0319   -1.3050 H   0  0  0  0  0  0  0  0  0  0  0  0
   -3.3058    0.8492    2.1909 H   0  0  0  0  0  0  0  0  0  0  0  0
   -4.9319    0.2024    1.9260 H   0  0  0  0  0  0  0  0  0  0  0  0
   -3.5392   -0.8766    1.8483 H   0  0  0  0  0  0  0  0  0  0  0  0
    4.4890    0.2932   -1.4351 H   0  0  0  0  0  0  0  0  0  0  0  0
    1.5379   -1.3833    1.1967 H   0  0  0  0  0  0  0  0  0  0  0  0
    6.1438    0.3100    0.4174 H   0  0  0  0  0  0  0  0  0  0  0  0
    3.0866   -1.1423    3.0984 H   0  0  0  0  0  0  0  0  0  0  0  0
  1  2  1  0
  3  1  1  0
  3  4  1  0
  3  5  2  0
  4  6  2  0
  7  4  1  0
  6  8  1  0
  9  7  2  0
  8 10  2  0
 10  9  1  0
 11 10  1  0
 11 12  1  0
 11 13  1  0
  2 14  2  0
 15  2  1  0
 14 16  1  0
 17 15  2  0
 16 18  2  0
 18 17  1  0
 18 19  1  0
  1 20  1  0
  6 21  1  0
  7 22  1  0
  8 23  1  0
  9 24  1  0
 11 25  1  0
 12 26  1  0
 12 27  1  0
 12 28  1  0
 13 29  1  0
 13 30  1  0
 13 31  1  0
 14 32  1  0
 15 33  1  0
 16 34  1  0
 17 35  1  0
M  END
$$$$

     RDKit          3D

 36 37  0  0  0  0  0  0  0  0999 V2000
    1.7987   -0.6238   -2.1143 N   0  0  0  0  0  0  0  0  0  0  0  0
    2.6904   -0.1383   -1.1813 C   0  0  0  0  0  0  0  0  0  0  0  0
    1.1459   -1.8188   -1.8902 C   0  0  0  0  0  0  0  0  0  0  0  0
   -0.1482   -1.6723   -1.1745 C   0  0  0  0  0  0  0  0  0  0  0  0
    1.5529   -2.9133   -2.2632 O   0  0  0  0  0  0  0  0  0  0  0  0
   -1.2505   -1.4088   -1.9017 C   0  0  0  0  0  0  0  0  0  0  0  0
   -0.2011   -1.5855    0.2756 C   0  0  0  0  0  0  0  0  0  0  0  0
   -2.3883   -0.7691   -1.2568 C   0  0  0  0  0  0  0  0  0  0  0  0
   -1.2475   -0.9779    0.8638 C   0  0  0  0  0  0  0  0  0  0  0  0
   -2.3182   -0.4065    0.0431 C   0  0  0  0  0  0  0  0  0  0  0  0
   -3.2178    0.6643    0.6282 C   0  0  0  0  0  0  0  0  0  0  0  0
   -2.4266    1.8881    1.0998 C   0  0  0  0  0  0  0  0  0  0  0  0
   -4.1004    0.1176    1.7532 C   0  0  0  0  0  0  0  0  0  0  0  0
    3.8573   -0.7523   -0.9106 C   0  0  0  0  0  0  0  0  0  0  0  0
    2.3364    1.0828   -0.4615 C   0  0  0  0  0  0  0  0  0  0  0  0
    4.6493   -0.3280    0.2326 C   0  0  0  0  0  0  0  0  0  0  0  0
    3.0968    1.5082    0.5648 C   0  0  0  0  0  0  0  0  0  0  0  0
    1.2119    1.7364   -0.9123 O   0  0  0  0  0  0  0  0  0  0  0  0
    4.2835    0.7552    0.9417 C   0  0  0  0  0  0  0  0  0  0  0  0
    1.1830    0.1089   -2.4581 H   0  0  0  0  0  0  0  0  0  0  0  0
   -1.3988   -1.8573   -2.8795 H   0  0  0  0  0  0  0  0  0  0  0  0
    0.6049   -2.0278    0.8511 H   0  0  0  0  0  0  0  0  0  0  0  0
   -3.3310   -0.7594   -1.7954 H   0  0  0  0  0  0  0  0  0  0  0  0
   -1.3150   -0.9164    1.9446 H   0  0  0  0  0  0  0  0  0  0  0  0
   -3.8971    1.0158   -0.1612 H   0  0  0  0  0  0  0  0  0  0  0  0
   -1.7614    2.2549    0.3103 H   0  0  0  0  0  0  0  0  0  0  0  0
   -1.8201    1.6687    1.9850 H   0  0  0  0  0  0  0  0  0  0  0  0
   -3.1091    2.7056    1.3572 H   0  0  0  0  0  0  0  0  0  0  0  0
   -4.8742    0.8472    2.0170 H   0  0  0  0  0  0  0  0  0  0  0  0
   -4.6111   -0.8011    1.4434 H   0  0  0  0  0  0  0  0  0  0  0  0
   -3.5243   -0.0990    2.6592 H   0  0  0  0  0  0  0  0  0  0  0  0
    4.2076   -1.5916   -1.5032 H   0  0  0  0  0  0  0  0  0  0  0  0
    5.5316   -0.9047    0.4890 H   0  0  0  0  0  0  0  0  0  0  0  0
    2.8705    2.4081    1.1236 H   0  0  0  0  0  0  0  0  0  0  0  0
    1.0585    2.4989   -0.3294 H   0  0  0  0  0  0  0  0  0  0  0  0
    4.8613    1.0912    1.7961 H   0  0  0  0  0  0  0  0  0  0  0  0
  1  2  1  0
  3  1  1  0
  3  4  1  0
  3  5  2  0
  4  6  2  0
  7  4  1  0
  6  8  1  0
  9  7  2  0
  8 10  2  0
 10  9  1  0
 11 10  1  0
 11 12  1  0
 11 13  1  0
  2 14  2  0
 15  2  1  0
 14 16  1  0
 17 15  2  0
 15 18  1  0
 16 19  2  0
 19 17  1  0
  1 20  1  0
  6 21  1  0
  7 22  1  0
  8 23  1  0
  9 24  1  0
 11 25  1  0
 12 26  1  0
 12 27  1  0
 12 28  1  0
 13 29  1  0
 13 30  1  0
 13 31  1  0
 14 32  1  0
 16 33  1  0
 17 34  1  0
 18 35  1  0
 19 36  1  0
M  END
$$$$

     RDKit          3D

 39 40  0  0  0  0  0  0  0  0999 V2000
    1.1046   -0.4528   -2.0932 N   0  0  0  0  0  0  0  0  0  0  0  0
    2.0856   -0.2330   -1.1455 C   0  0  0  0  0  0  0  0  0  0  0  0
    0.4867   -1.6837   -2.1712 C   0  0  0  0  0  0  0  0  0  0  0  0
   -0.7566   -1.7786   -1.3670 C   0  0  0  0  0  0  0  0  0  0  0  0
    0.8844   -2.6008   -2.8784 O   0  0  0  0  0  0  0  0  0  0  0  0
   -1.8779   -1.2546   -1.8984 C   0  0  0  0  0  0  0  0  0  0  0  0
   -0.6998   -2.0468    0.0616 C   0  0  0  0  0  0  0  0  0  0  0  0
   -2.8588   -0.6387   -1.0162 C   0  0  0  0  0  0  0  0  0  0  0  0
   -1.6115   -1.4831    0.8749 C   0  0  0  0  0  0  0  0  0  0  0  0
   -2.6507   -0.6129    0.3192 C   0  0  0  0  0  0  0  0  0  0  0  0
   -3.3667    0.3254    1.2723 C   0  0  0  0  0  0  0  0  0  0  0  0
   -3.2444    1.7901    0.8414 C   0  0  0  0  0  0  0  0  0  0  0  0
   -4.8369   -0.0680    1.4374 C   0  0  0  0  0  0  0  0  0  0  0  0
    3.3087   -0.7888   -1.2513 C   0  0  0  0  0  0  0  0  0  0  0  0
    1.8912    0.8765   -0.2139 C   0  0  0  0  0  0  0  0  0  0  0  0
    4.4476   -0.1896   -0.5737 C   0  0  0  0  0  0  0  0  0  0  0  0
    2.9348    1.4045    0.4459 C   0  0  0  0  0  0  0  0  0  0  0  0
    0.6125    1.3553   -0.0382 O   0  0  0  0  0  0  0  0  0  0  0  0
    4.2779    0.8664    0.2480 C   0  0  0  0  0  0  0  0  0  0  0  0
    5.3998    1.5280    0.9863 C   0  0  0  0  0  0  0  0  0  0  0  0
    1.3796   -0.1296   -3.0158 H   0  0  0  0  0  0  0  0  0  0  0  0
   -2.1661   -1.4642   -2.9239 H   0  0  0  0  0  0  0  0  0  0  0  0
    0.0747   -2.7069    0.4376 H   0  0  0  0  0  0  0  0  0  0  0  0
   -3.8208   -0.3720   -1.4438 H   0  0  0  0  0  0  0  0  0  0  0  0
   -1.5993   -1.6781    1.9425 H   0  0  0  0  0  0  0  0  0  0  0  0
   -2.9026    0.2515    2.2651 H   0  0  0  0  0  0  0  0  0  0  0  0
   -3.7792    1.9885   -0.0941 H   0  0  0  0  0  0  0  0  0  0  0  0
   -3.6613    2.4494    1.6111 H   0  0  0  0  0  0  0  0  0  0  0  0
   -2.1949    2.0733    0.7048 H   0  0  0  0  0  0  0  0  0  0  0  0
   -4.9327   -1.1223    1.7200 H   0  0  0  0  0  0  0  0  0  0  0  0
   -5.4091    0.0942    0.5174 H   0  0  0  0  0  0  0  0  0  0  0  0
   -5.3040    0.5256    2.2311 H   0  0  0  0  0  0  0  0  0  0  0  0
    3.4672   -1.7210   -1.7857 H   0  0  0  0  0  0  0  0  0  0  0  0
    5.4246   -0.6302   -0.7447 H   0  0  0  0  0  0  0  0  0  0  0  0
    2.7892    2.2283    1.1365 H   0  0  0  0  0  0  0  0  0  0  0  0
    0.0277    0.7905   -0.5766 H   0  0  0  0  0  0  0  0  0  0  0  0
    6.3612    1.0438    0.7843 H   0  0  0  0  0  0  0  0  0  0  0  0
    5.4880    2.5785    0.6901 H   0  0  0  0  0  0  0  0  0  0  0  0
    5.2275    1.4857    2.0671 H   0  0  0  0  0  0  0  0  0  0  0  0
  1  2  1  0
  3  1  1  0
  3  4  1  0
  3  5  2  0
  4  6  2  0
  7  4  1  0
  6  8  1  0
  9  7  2  0
  8 10  2  0
 10  9  1  0
 11 10  1  0
 11 12  1  0
 11 13  1  0
  2 14  2  0
 15  2  1  0
 14 16  1  0
 17 15  2  0
 15 18  1  0
 16 19  2  0
 19 17  1  0
 19 20  1  0
  1 21  1  0
  6 22  1  0
  7 23  1  0
  8 24  1  0
  9 25  1  0
 11 26  1  0
 12 27  1  0
 12 28  1  0
 12 29  1  0
 13 30  1  0
 13 31  1  0
 13 32  1  0
 14 33  1  0
 16 34  1  0
 17 35  1  0
 18 36  1  0
 20 37  1  0
 20 38  1  0
 20 39  1  0
M  END
$$$$

     RDKit          3D

 35 36  0  0  0  0  0  0  0  0999 V2000
    1.7166    1.5649   -1.3599 N   0  0  0  0  0  0  0  0  0  0  0  0
    2.7161    0.6994   -0.9750 C   0  0  0  0  0  0  0  0  0  0  0  0
    1.1411    2.4143   -0.4364 C   0  0  0  0  0  0  0  0  0  0  0  0
   -0.1302    1.9014    0.1352 C   0  0  0  0  0  0  0  0  0  0  0  0
    1.5934    3.5087   -0.1220 O   0  0  0  0  0  0  0  0  0  0  0  0
   -1.2605    2.1016   -0.5695 C   0  0  0  0  0  0  0  0  0  0  0  0
   -0.1280    0.9501    1.2346 C   0  0  0  0  0  0  0  0  0  0  0  0
   -2.3446    1.1363   -0.4540 C   0  0  0  0  0  0  0  0  0  0  0  0
   -1.1282    0.0553    1.3316 C   0  0  0  0  0  0  0  0  0  0  0  0
   -2.1979    0.0455    0.3311 C   0  0  0  0  0  0  0  0  0  0  0  0
   -2.9609   -1.2496    0.1324 C   0  0  0  0  0  0  0  0  0  0  0  0
   -2.7527   -1.8236   -1.2723 C   0  0  0  0  0  0  0  0  0  0  0  0
   -4.4523   -1.0748    0.4298 C   0  0  0  0  0  0  0  0  0  0  0  0
    3.9713    1.1249   -0.7341 C   0  0  0  0  0  0  0  0  0  0  0  0
    2.4316   -0.7290   -0.9425 C   0  0  0  0  0  0  0  0  0  0  0  0
    5.0046    0.1722   -0.3561 C   0  0  0  0  0  0  0  0  0  0  0  0
    3.3874   -1.6142   -0.6168 C   0  0  0  0  0  0  0  0  0  0  0  0
    1.1911   -1.1513   -1.2643 F   0  0  0  0  0  0  0  0  0  0  0  0
    4.7244   -1.1426   -0.2969 C   0  0  0  0  0  0  0  0  0  0  0  0
    1.0576    1.1699   -2.0232 H   0  0  0  0  0  0  0  0  0  0  0  0
   -1.4711    3.0610   -1.0323 H   0  0  0  0  0  0  0  0  0  0  0  0
    0.6740    0.9983    1.9631 H   0  0  0  0  0  0  0  0  0  0  0  0
   -3.3089    1.4088   -0.8714 H   0  0  0  0  0  0  0  0  0  0  0  0
   -1.1653   -0.6525    2.1532 H   0  0  0  0  0  0  0  0  0  0  0  0
   -2.5830   -2.0009    0.8389 H   0  0  0  0  0  0  0  0  0  0  0  0
   -3.1884   -2.8263   -1.3419 H   0  0  0  0  0  0  0  0  0  0  0  0
   -3.2212   -1.2012   -2.0424 H   0  0  0  0  0  0  0  0  0  0  0  0
   -1.6861   -1.9152   -1.5060 H   0  0  0  0  0  0  0  0  0  0  0  0
   -4.9473   -0.4432   -0.3156 H   0  0  0  0  0  0  0  0  0  0  0  0
   -4.6070   -0.6264    1.4175 H   0  0  0  0  0  0  0  0  0  0  0  0
   -4.9564   -2.0476    0.4312 H   0  0  0  0  0  0  0  0  0  0  0  0
    4.2267    2.1803   -0.7575 H   0  0  0  0  0  0  0  0  0  0  0  0
    5.9935    0.5533   -0.1225 H   0  0  0  0  0  0  0  0  0  0  0  0
    3.1818   -2.6774   -0.5963 H   0  0  0  0  0  0  0  0  0  0  0  0
    5.4790   -1.8703   -0.0167 H   0  0  0  0  0  0  0  0  0  0  0  0
  1  2  1  0
  3  1  1  0
  3  4  1  0
  3  5  2  0
  4  6  2  0
  7  4  1  0
  6  8  1  0
  9  7  2  0
  8 10  2  0
 10  9  1  0
 11 10  1  0
 11 12  1  0
 11 13  1  0
  2 14  2  0
 15  2  1  0
 14 16  1  0
 17 15  2  0
 15 18  1  0
 16 19  2  0
 19 17  1  0
  1 20  1  0
  6 21  1  0
  7 22  1  0
  8 23  1  0
  9 24  1  0
 11 25  1  0
 12 26  1  0
 12 27  1  0
 12 28  1  0
 13 29  1  0
 13 30  1  0
 13 31  1  0
 14 32  1  0
 16 33  1  0
 17 34  1  0
 19 35  1  0
M  END
$$$$

     RDKit          3D

 35 36  0  0  0  0  0  0  0  0999 V2000
    1.7107    0.5191   -1.8090 N   0  0  0  0  0  0  0  0  0  0  0  0
    2.6258    0.4097   -0.7953 C   0  0  0  0  0  0  0  0  0  0  0  0
    1.1115   -0.5910   -2.3617 C   0  0  0  0  0  0  0  0  0  0  0  0
   -0.1867   -0.9414   -1.7305 C   0  0  0  0  0  0  0  0  0  0  0  0
    1.5564   -1.2167   -3.3159 O   0  0  0  0  0  0  0  0  0  0  0  0
   -0.1720   -1.8184   -0.7087 C   0  0  0  0  0  0  0  0  0  0  0  0
   -1.3819   -0.1509   -1.9812 C   0  0  0  0  0  0  0  0  0  0  0  0
   -1.2056   -1.7345    0.3124 C   0  0  0  0  0  0  0  0  0  0  0  0
   -2.3275   -0.0663   -1.0273 C   0  0  0  0  0  0  0  0  0  0  0  0
   -2.1449   -0.7653    0.2476 C   0  0  0  0  0  0  0  0  0  0  0  0
   -2.9188   -0.3117    1.4698 C   0  0  0  0  0  0  0  0  0  0  0  0
   -2.6780    1.1658    1.7942 C   0  0  0  0  0  0  0  0  0  0  0  0
   -4.4153   -0.6045    1.3365 C   0  0  0  0  0  0  0  0  0  0  0  0
    2.3042    0.7131    0.4781 C   0  0  0  0  0  0  0  0  0  0  0  0
    4.0271    0.2804   -1.1748 C   0  0  0  0  0  0  0  0  0  0  0  0
    3.3487    1.0852    1.4208 C   0  0  0  0  0  0  0  0  0  0  0  0
    4.9951    0.5800   -0.2889 C   0  0  0  0  0  0  0  0  0  0  0  0
    4.6352    1.0162    1.0434 C   0  0  0  0  0  0  0  0  0  0  0  0
    5.6230    1.3414    1.8998 F   0  0  0  0  0  0  0  0  0  0  0  0
    1.1831    1.3817   -1.8546 H   0  0  0  0  0  0  0  0  0  0  0  0
    0.4791   -2.6871   -0.7198 H   0  0  0  0  0  0  0  0  0  0  0  0
   -1.4982    0.3261   -2.9484 H   0  0  0  0  0  0  0  0  0  0  0  0
   -1.2926   -2.5623    1.0094 H   0  0  0  0  0  0  0  0  0  0  0  0
   -3.2416    0.4925   -1.1987 H   0  0  0  0  0  0  0  0  0  0  0  0
   -2.5615   -0.8843    2.3373 H   0  0  0  0  0  0  0  0  0  0  0  0
   -1.6067    1.3945    1.8192 H   0  0  0  0  0  0  0  0  0  0  0  0
   -3.0863    1.4088    2.7815 H   0  0  0  0  0  0  0  0  0  0  0  0
   -3.1543    1.8291    1.0642 H   0  0  0  0  0  0  0  0  0  0  0  0
   -4.9247   -0.4205    2.2890 H   0  0  0  0  0  0  0  0  0  0  0  0
   -4.8909    0.0248    0.5766 H   0  0  0  0  0  0  0  0  0  0  0  0
   -4.5889   -1.6535    1.0715 H   0  0  0  0  0  0  0  0  0  0  0  0
    1.2912    0.6135    0.8535 H   0  0  0  0  0  0  0  0  0  0  0  0
    4.2644   -0.0658   -2.1762 H   0  0  0  0  0  0  0  0  0  0  0  0
    3.0748    1.3981    2.4208 H   0  0  0  0  0  0  0  0  0  0  0  0
    6.0464    0.4941   -0.5352 H   0  0  0  0  0  0  0  0  0  0  0  0
  1  2  1  0
  3  1  1  0
  3  4  1  0
  3  5  2  0
  4  6  2  0
  7  4  1  0
  6  8  1  0
  9  7  2  0
  8 10  2  0
 10  9  1  0
 11 10  1  0
 11 12  1  0
 11 13  1  0
  2 14  2  0
 15  2  1  0
 14 16  1  0
 17 15  2  0
 16 18  2  0
 18 17  1  0
 18 19  1  0
  1 20  1  0
  6 21  1  0
  7 22  1  0
  8 23  1  0
  9 24  1  0
 11 25  1  0
 12 26  1  0
 12 27  1  0
 12 28  1  0
 13 29  1  0
 13 30  1  0
 13 31  1  0
 14 32  1  0
 15 33  1  0
 16 34  1  0
 17 35  1  0
M  END
$$$$

     RDKit          3D

 35 36  0  0  0  0  0  0  0  0999 V2000
    2.3360   -1.6086    0.5268 N   0  0  0  0  0  0  0  0  0  0  0  0
    3.0634   -0.4852    0.2078 C   0  0  0  0  0  0  0  0  0  0  0  0
    1.3785   -2.0814   -0.3430 C   0  0  0  0  0  0  0  0  0  0  0  0
    0.0724   -1.3841   -0.2425 C   0  0  0  0  0  0  0  0  0  0  0  0
    1.5713   -3.0201   -1.1063 O   0  0  0  0  0  0  0  0  0  0  0  0
   -0.8363   -1.8293    0.6455 C   0  0  0  0  0  0  0  0  0  0  0  0
   -0.2437   -0.2595   -1.1074 C   0  0  0  0  0  0  0  0  0  0  0  0
   -2.0747   -1.0917    0.8314 C   0  0  0  0  0  0  0  0  0  0  0  0
   -1.4403    0.3478   -1.0073 C   0  0  0  0  0  0  0  0  0  0  0  0
   -2.4369   -0.1291   -0.0453 C   0  0  0  0  0  0  0  0  0  0  0  0
   -3.8617    0.3847   -0.1345 C   0  0  0  0  0  0  0  0  0  0  0  0
   -4.5216    0.0204   -1.4685 C   0  0  0  0  0  0  0  0  0  0  0  0
   -3.9509    1.8916    0.1248 C   0  0  0  0  0  0  0  0  0  0  0  0
    2.9729    0.6271    0.9596 C   0  0  0  0  0  0  0  0  0  0  0  0
    4.1230   -0.5993   -0.7849 C   0  0  0  0  0  0  0  0  0  0  0  0
    4.0186    1.6350    0.8972 C   0  0  0  0  0  0  0  0  0  0  0  0
    5.0705    0.3525   -0.8704 C   0  0  0  0  0  0  0  0  0  0  0  0
    5.0283    1.5008    0.0189 C   0  0  0  0  0  0  0  0  0  0  0  0
    2.9122   -2.3678    0.8741 H   0  0  0  0  0  0  0  0  0  0  0  0
   -0.6803   -2.7305    1.2284 H   0  0  0  0  0  0  0  0  0  0  0  0
    0.5044    0.0741   -1.8185 H   0  0  0  0  0  0  0  0  0  0  0  0
   -2.6853   -1.3389    1.6938 H   0  0  0  0  0  0  0  0  0  0  0  0
   -1.6815    1.1921   -1.6449 H   0  0  0  0  0  0  0  0  0  0  0  0
   -4.4562   -0.1023    0.6510 H   0  0  0  0  0  0  0  0  0  0  0  0
   -4.4125   -1.0490   -1.6834 H   0  0  0  0  0  0  0  0  0  0  0  0
   -4.0959    0.5842   -2.3048 H   0  0  0  0  0  0  0  0  0  0  0  0
   -5.5954    0.2368   -1.4328 H   0  0  0  0  0  0  0  0  0  0  0  0
   -3.5454    2.4772   -0.7072 H   0  0  0  0  0  0  0  0  0  0  0  0
   -4.9964    2.1905    0.2625 H   0  0  0  0  0  0  0  0  0  0  0  0
   -3.4092    2.1702    1.0360 H   0  0  0  0  0  0  0  0  0  0  0  0
    2.1013    0.8302    1.5720 H   0  0  0  0  0  0  0  0  0  0  0  0
    4.1268   -1.4565   -1.4512 H   0  0  0  0  0  0  0  0  0  0  0  0
    3.9563    2.4863    1.5662 H   0  0  0  0  0  0  0  0  0  0  0  0
    5.8684    0.2926   -1.6031 H   0  0  0  0  0  0  0  0  0  0  0  0
    5.8199    2.2392   -0.0515 H   0  0  0  0  0  0  0  0  0  0  0  0
  1  2  1  0
  3  1  1  0
  3  4  1  0
  3  5  2  0
  4  6  2  0
  7  4  1  0
  6  8  1  0
  9  7  2  0
  8 10  2  0
 10  9  1  0
 11 10  1  0
 11 12  1  0
 11 13  1  0
  2 14  2  0
 15  2  1  0
 14 16  1  0
 17 15  2  0
 16 18  2  0
 18 17  1  0
  1 19  1  0
  6 20  1  0
  7 21  1  0
  8 22  1  0
  9 23  1  0
 11 24  1  0
 12 25  1  0
 12 26  1  0
 12 27  1  0
 13 28  1  0
 13 29  1  0
 13 30  1  0
 14 31  1  0
 15 32  1  0
 16 33  1  0
 17 34  1  0
 18 35  1  0
M  END
$$$$

     RDKit          3D

 35 36  0  0  0  0  0  0  0  0999 V2000
    1.5067    1.5072   -1.3217 N   0  0  0  0  0  0  0  0  0  0  0  0
    2.5905    0.7343   -0.9710 C   0  0  0  0  0  0  0  0  0  0  0  0
    0.9943    2.4283   -0.4296 C   0  0  0  0  0  0  0  0  0  0  0  0
   -0.2009    1.9439    0.3069 C   0  0  0  0  0  0  0  0  0  0  0  0
    1.4437    3.5552   -0.2599 O   0  0  0  0  0  0  0  0  0  0  0  0
   -1.3943    2.0316   -0.3115 C   0  0  0  0  0  0  0  0  0  0  0  0
   -0.0633    1.1008    1.4834 C   0  0  0  0  0  0  0  0  0  0  0  0
   -2.4132    1.0319   -0.0237 C   0  0  0  0  0  0  0  0  0  0  0  0
   -1.0048    0.1748    1.7420 C   0  0  0  0  0  0  0  0  0  0  0  0
   -2.1475    0.0248    0.8381 C   0  0  0  0  0  0  0  0  0  0  0  0
   -2.8539   -1.3168    0.8162 C   0  0  0  0  0  0  0  0  0  0  0  0
   -2.7127   -2.0116   -0.5415 C   0  0  0  0  0  0  0  0  0  0  0  0
   -4.3287   -1.1839    1.2050 C   0  0  0  0  0  0  0  0  0  0  0  0
    3.8400    1.2391   -0.9341 C   0  0  0  0  0  0  0  0  0  0  0  0
    2.3914   -0.6952   -0.7596 C   0  0  0  0  0  0  0  0  0  0  0  0
    4.9648    0.3720   -0.6134 C   0  0  0  0  0  0  0  0  0  0  0  0
    3.4275   -1.5017   -0.4808 C   0  0  0  0  0  0  0  0  0  0  0  0
    1.1443   -1.1991   -0.8668 F   0  0  0  0  0  0  0  0  0  0  0  0
    4.7561   -0.9366   -0.3963 C   0  0  0  0  0  0  0  0  0  0  0  0
    5.7817   -1.7575   -0.0991 F   0  0  0  0  0  0  0  0  0  0  0  0
    0.7986    1.0159   -1.8588 H   0  0  0  0  0  0  0  0  0  0  0  0
   -1.6928    2.9378   -0.8297 H   0  0  0  0  0  0  0  0  0  0  0  0
    0.7884    1.2535    2.1373 H   0  0  0  0  0  0  0  0  0  0  0  0
   -3.4216    1.2238   -0.3771 H   0  0  0  0  0  0  0  0  0  0  0  0
   -0.9420   -0.4537    2.6243 H   0  0  0  0  0  0  0  0  0  0  0  0
   -2.3896   -1.9794    1.5592 H   0  0  0  0  0  0  0  0  0  0  0  0
   -3.2635   -1.4863   -1.3293 H   0  0  0  0  0  0  0  0  0  0  0  0
   -3.1003   -3.0349   -0.4874 H   0  0  0  0  0  0  0  0  0  0  0  0
   -1.6612   -2.0772   -0.8425 H   0  0  0  0  0  0  0  0  0  0  0  0
   -4.4389   -0.6501    2.1555 H   0  0  0  0  0  0  0  0  0  0  0  0
   -4.7781   -2.1748    1.3336 H   0  0  0  0  0  0  0  0  0  0  0  0
   -4.9070   -0.6512    0.4425 H   0  0  0  0  0  0  0  0  0  0  0  0
    4.0296    2.2991   -1.0773 H   0  0  0  0  0  0  0  0  0  0  0  0
    5.9584    0.8005   -0.5506 H   0  0  0  0  0  0  0  0  0  0  0  0
    3.2981   -2.5645   -0.3263 H   0  0  0  0  0  0  0  0  0  0  0  0
  1  2  1  0
  3  1  1  0
  3  4  1  0
  3  5  2  0
  4  6  2  0
  7  4  1  0
  6  8  1  0
  9  7  2  0
  8 10  2  0
 10  9  1  0
 11 10  1  0
 11 12  1  0
 11 13  1  0
  2 14  2  0
 15  2  1  0
 14 16  1  0
 17 15  2  0
 15 18  1  0
 16 19  2  0
 19 17  1  0
 19 20  1  0
  1 21  1  0
  6 22  1  0
  7 23  1  0
  8 24  1  0
  9 25  1  0
 11 26  1  0
 12 27  1  0
 12 28  1  0
 12 29  1  0
 13 30  1  0
 13 31  1  0
 13 32  1  0
 14 33  1  0
 16 34  1  0
 17 35  1  0
M  END
$$$$

     RDKit          3D

 37 39  0  0  0  0  0  0  0  0999 V2000
   -1.9014   -1.9211   -1.2778 N   0  0  0  0  0  0  0  0  0  0  0  0
   -2.7901   -1.1250   -0.5797 C   0  0  0  0  0  0  0  0  0  0  0  0
   -1.3282   -1.4505   -2.4419 C   0  0  0  0  0  0  0  0  0  0  0  0
   -0.0403   -0.7435   -2.2314 C   0  0  0  0  0  0  0  0  0  0  0  0
   -1.8023   -1.6386   -3.5547 O   0  0  0  0  0  0  0  0  0  0  0  0
   -0.0947    0.5868   -2.0332 C   0  0  0  0  0  0  0  0  0  0  0  0
    1.1613   -1.4713   -1.8604 C   0  0  0  0  0  0  0  0  0  0  0  0
    0.8460    1.2055   -1.1126 C   0  0  0  0  0  0  0  0  0  0  0  0
    2.0719   -0.8792   -1.0657 C   0  0  0  0  0  0  0  0  0  0  0  0
    1.8641    0.4907   -0.5785 C   0  0  0  0  0  0  0  0  0  0  0  0
    2.6754    1.0725    0.4891 C   0  0  0  0  0  0  0  0  0  0  0  0
    3.8059    1.7432    0.1719 C   0  0  0  0  0  0  0  0  0  0  0  0
    2.3871    0.8544    1.9110 C   0  0  0  0  0  0  0  0  0  0  0  0
    4.8201    2.0146    1.1802 C   0  0  0  0  0  0  0  0  0  0  0  0
    3.2943    1.1671    2.8546 C   0  0  0  0  0  0  0  0  0  0  0  0
    4.5736    1.7498    2.4761 C   0  0  0  0  0  0  0  0  0  0  0  0
    5.8190    2.0929    3.8201 Br  0  0  0  0  0  0  0  0  0  0  0  0
   -4.0310   -0.8716   -1.0422 C   0  0  0  0  0  0  0  0  0  0  0  0
   -2.4667   -0.7906    0.8066 C   0  0  0  0  0  0  0  0  0  0  0  0
   -5.0932   -0.4590   -0.1257 C   0  0  0  0  0  0  0  0  0  0  0  0
   -3.4252   -0.3572    1.6409 C   0  0  0  0  0  0  0  0  0  0  0  0
   -1.1602   -0.9237    1.2194 O   0  0  0  0  0  0  0  0  0  0  0  0
   -7.0233   -0.2260   -0.8233 I   0  0  0  0  0  0  0  0  0  0  0  0
   -4.7897   -0.2046    1.1638 C   0  0  0  0  0  0  0  0  0  0  0  0
   -2.2545   -2.8644   -1.4145 H   0  0  0  0  0  0  0  0  0  0  0  0
   -0.7559    1.2237   -2.6130 H   0  0  0  0  0  0  0  0  0  0  0  0
    1.3067   -2.4729   -2.2543 H   0  0  0  0  0  0  0  0  0  0  0  0
    0.7533    2.2722   -0.9456 H   0  0  0  0  0  0  0  0  0  0  0  0
    2.9894   -1.3903   -0.7867 H   0  0  0  0  0  0  0  0  0  0  0  0
    3.9467    2.1845   -0.8124 H   0  0  0  0  0  0  0  0  0  0  0  0
    1.4252    0.4236    2.1806 H   0  0  0  0  0  0  0  0  0  0  0  0
    5.7572    2.4531    0.8516 H   0  0  0  0  0  0  0  0  0  0  0  0
    3.0837    0.9906    3.9045 H   0  0  0  0  0  0  0  0  0  0  0  0
   -4.2381   -0.8545   -2.1085 H   0  0  0  0  0  0  0  0  0  0  0  0
   -3.1999   -0.1057    2.6716 H   0  0  0  0  0  0  0  0  0  0  0  0
   -0.6495   -1.2032    0.4370 H   0  0  0  0  0  0  0  0  0  0  0  0
   -5.5368    0.1189    1.8831 H   0  0  0  0  0  0  0  0  0  0  0  0
  1  2  1  0
  3  1  1  0
  3  4  1  0
  3  5  2  0
  4  6  2  0
  7  4  1  0
  6  8  1  0
  9  7  2  0
  8 10  2  0
 10  9  1  0
 10 11  1  0
 11 12  2  0
 13 11  1  0
 12 14  1  0
 15 13  2  0
 14 16  2  0
 16 15  1  0
 16 17  1  0
  2 18  2  0
 19  2  1  0
 18 20  1  0
 21 19  2  0
 19 22  1  0
 20 23  1  0
 20 24  2  0
 24 21  1  0
  1 25  1  0
  6 26  1  0
  7 27  1  0
  8 28  1  0
  9 29  1  0
 12 30  1  0
 13 31  1  0
 14 32  1  0
 15 33  1  0
 18 34  1  0
 21 35  1  0
 22 36  1  0
 24 37  1  0
M  END
$$$$

     RDKit          3D

 36 38  0  0  0  0  0  0  0  0999 V2000
   -1.7857    2.7761    0.1658 N   0  0  0  0  0  0  0  0  0  0  0  0
   -2.7538    1.9335    0.6652 C   0  0  0  0  0  0  0  0  0  0  0  0
   -1.3860    2.7091   -1.1519 C   0  0  0  0  0  0  0  0  0  0  0  0
   -0.2749    1.7539   -1.3946 C   0  0  0  0  0  0  0  0  0  0  0  0
   -1.8519    3.3992   -2.0506 O   0  0  0  0  0  0  0  0  0  0  0  0
   -0.5849    0.4853   -1.7194 C   0  0  0  0  0  0  0  0  0  0  0  0
    1.1013    2.1091   -1.0944 C   0  0  0  0  0  0  0  0  0  0  0  0
    0.3974   -0.5666   -1.5039 C   0  0  0  0  0  0  0  0  0  0  0  0
    2.0120    1.1355   -0.9172 C   0  0  0  0  0  0  0  0  0  0  0  0
    1.6314   -0.2783   -1.0295 C   0  0  0  0  0  0  0  0  0  0  0  0
    2.5012   -1.3647   -0.5834 C   0  0  0  0  0  0  0  0  0  0  0  0
    3.4147   -1.8782   -1.4379 C   0  0  0  0  0  0  0  0  0  0  0  0
    2.4768   -1.8838    0.7873 C   0  0  0  0  0  0  0  0  0  0  0  0
    4.4218   -2.8223   -0.9800 C   0  0  0  0  0  0  0  0  0  0  0  0
    3.3896   -2.7791    1.2051 C   0  0  0  0  0  0  0  0  0  0  0  0
    4.4146   -3.2592    0.2922 C   0  0  0  0  0  0  0  0  0  0  0  0
    5.6776   -4.4665    0.9411 Br  0  0  0  0  0  0  0  0  0  0  0  0
   -4.0357    2.0497    0.2658 C   0  0  0  0  0  0  0  0  0  0  0  0
   -2.3770    0.8180    1.5452 C   0  0  0  0  0  0  0  0  0  0  0  0
   -4.9425    0.9241    0.4043 C   0  0  0  0  0  0  0  0  0  0  0  0
   -3.2552   -0.1874    1.7409 C   0  0  0  0  0  0  0  0  0  0  0  0
   -0.7229    0.8450    2.4196 Br  0  0  0  0  0  0  0  0  0  0  0  0
   -4.5649   -0.1560    1.1103 C   0  0  0  0  0  0  0  0  0  0  0  0
   -1.0608    3.0438    0.8216 H   0  0  0  0  0  0  0  0  0  0  0  0
   -1.5065    0.2392   -2.2371 H   0  0  0  0  0  0  0  0  0  0  0  0
    1.3716    3.1574   -1.0403 H   0  0  0  0  0  0  0  0  0  0  0  0
    0.1348   -1.5687   -1.8303 H   0  0  0  0  0  0  0  0  0  0  0  0
    3.0503    1.3703   -0.7045 H   0  0  0  0  0  0  0  0  0  0  0  0
    3.4342   -1.5983   -2.4872 H   0  0  0  0  0  0  0  0  0  0  0  0
    1.7042   -1.5205    1.4580 H   0  0  0  0  0  0  0  0  0  0  0  0
    5.1667   -3.1555   -1.6951 H   0  0  0  0  0  0  0  0  0  0  0  0
    3.3687   -3.1555    2.2220 H   0  0  0  0  0  0  0  0  0  0  0  0
   -4.3954    2.9424   -0.2370 H   0  0  0  0  0  0  0  0  0  0  0  0
   -5.9164    0.9833   -0.0699 H   0  0  0  0  0  0  0  0  0  0  0  0
   -3.0292   -1.0261    2.3907 H   0  0  0  0  0  0  0  0  0  0  0  0
   -5.2252   -1.0083    1.2356 H   0  0  0  0  0  0  0  0  0  0  0  0
  1  2  1  0
  3  1  1  0
  3  4  1  0
  3  5  2  0
  4  6  2  0
  7  4  1  0
  6  8  1  0
  9  7  2  0
  8 10  2  0
 10  9  1  0
 10 11  1  0
 11 12  2  0
 13 11  1  0
 12 14  1  0
 15 13  2  0
 14 16  2  0
 16 15  1  0
 16 17  1  0
  2 18  2  0
 19  2  1  0
 18 20  1  0
 21 19  2  0
 19 22  1  0
 20 23  2  0
 23 21  1  0
  1 24  1  0
  6 25  1  0
  7 26  1  0
  8 27  1  0
  9 28  1  0
 12 29  1  0
 13 30  1  0
 14 31  1  0
 15 32  1  0
 18 33  1  0
 20 34  1  0
 21 35  1  0
 23 36  1  0
M  END
$$$$

     RDKit          3D

 39 41  0  0  0  0  0  0  0  0999 V2000
    2.2396    1.1351    1.6573 N   0  0  0  0  0  0  0  0  0  0  0  0
    2.9319    0.4950    0.6553 C   0  0  0  0  0  0  0  0  0  0  0  0
    1.4491    0.4070    2.5174 C   0  0  0  0  0  0  0  0  0  0  0  0
    0.0709    0.1784    2.0175 C   0  0  0  0  0  0  0  0  0  0  0  0
    1.8225    0.0308    3.6216 O   0  0  0  0  0  0  0  0  0  0  0  0
   -0.2149   -1.0048    1.4432 C   0  0  0  0  0  0  0  0  0  0  0  0
   -0.9461    1.2116    2.1019 C   0  0  0  0  0  0  0  0  0  0  0  0
   -1.4899   -1.1874    0.7667 C   0  0  0  0  0  0  0  0  0  0  0  0
   -2.1327    1.0288    1.4955 C   0  0  0  0  0  0  0  0  0  0  0  0
   -2.4191   -0.2043    0.7515 C   0  0  0  0  0  0  0  0  0  0  0  0
   -3.6761   -0.4140    0.0341 C   0  0  0  0  0  0  0  0  0  0  0  0
   -3.7812   -0.0238   -1.2562 C   0  0  0  0  0  0  0  0  0  0  0  0
   -4.8567   -1.0071    0.6707 C   0  0  0  0  0  0  0  0  0  0  0  0
   -5.0282   -0.1817   -1.9892 C   0  0  0  0  0  0  0  0  0  0  0  0
   -6.0097   -1.1559   -0.0065 C   0  0  0  0  0  0  0  0  0  0  0  0
   -6.1040   -0.7269   -1.3925 C   0  0  0  0  0  0  0  0  0  0  0  0
   -7.7268   -0.9598   -2.2767 Br  0  0  0  0  0  0  0  0  0  0  0  0
    4.0894   -0.1509    0.8895 C   0  0  0  0  0  0  0  0  0  0  0  0
    2.5328    0.7777   -0.7130 C   0  0  0  0  0  0  0  0  0  0  0  0
    5.0160   -0.4026   -0.2019 C   0  0  0  0  0  0  0  0  0  0  0  0
    3.3682    0.5007   -1.7307 C   0  0  0  0  0  0  0  0  0  0  0  0
    4.6762   -0.0941   -1.4698 C   0  0  0  0  0  0  0  0  0  0  0  0
    5.5729   -0.3343   -2.6446 C   0  0  0  0  0  0  0  0  0  0  0  0
    2.8083    1.8018    2.1682 H   0  0  0  0  0  0  0  0  0  0  0  0
    0.4359   -1.8663    1.5564 H   0  0  0  0  0  0  0  0  0  0  0  0
   -0.7297    2.1127    2.6657 H   0  0  0  0  0  0  0  0  0  0  0  0
   -1.6947   -2.1696    0.3512 H   0  0  0  0  0  0  0  0  0  0  0  0
   -2.9112    1.7837    1.5519 H   0  0  0  0  0  0  0  0  0  0  0  0
   -2.9396    0.4085   -1.7899 H   0  0  0  0  0  0  0  0  0  0  0  0
   -4.7733   -1.3231    1.7062 H   0  0  0  0  0  0  0  0  0  0  0  0
   -5.0535    0.1505   -3.0215 H   0  0  0  0  0  0  0  0  0  0  0  0
   -6.8787   -1.5960    0.4717 H   0  0  0  0  0  0  0  0  0  0  0  0
    4.3271   -0.5604    1.8661 H   0  0  0  0  0  0  0  0  0  0  0  0
    1.5533    1.2068   -0.8934 H   0  0  0  0  0  0  0  0  0  0  0  0
    5.9719   -0.8556    0.0422 H   0  0  0  0  0  0  0  0  0  0  0  0
    3.0800    0.7059   -2.7565 H   0  0  0  0  0  0  0  0  0  0  0  0
    5.0956   -1.0107   -3.3617 H   0  0  0  0  0  0  0  0  0  0  0  0
    6.5241   -0.7867   -2.3438 H   0  0  0  0  0  0  0  0  0  0  0  0
    5.8002    0.6086   -3.1539 H   0  0  0  0  0  0  0  0  0  0  0  0
  1  2  1  0
  3  1  1  0
  3  4  1  0
  3  5  2  0
  4  6  2  0
  7  4  1  0
  6  8  1  0
  9  7  2  0
  8 10  2  0
 10  9  1  0
 10 11  1  0
 11 12  2  0
 13 11  1  0
 12 14  1  0
 15 13  2  0
 14 16  2  0
 16 15  1  0
 16 17  1  0
  2 18  2  0
 19  2  1  0
 18 20  1  0
 21 19  2  0
 20 22  2  0
 22 21  1  0
 22 23  1  0
  1 24  1  0
  6 25  1  0
  7 26  1  0
  8 27  1  0
  9 28  1  0
 12 29  1  0
 13 30  1  0
 14 31  1  0
 15 32  1  0
 18 33  1  0
 19 34  1  0
 20 35  1  0
 21 36  1  0
 23 37  1  0
 23 38  1  0
 23 39  1  0
M  END
$$$$

     RDKit          3D

 36 38  0  0  0  0  0  0  0  0999 V2000
    2.1888   -2.2886   -0.7560 N   0  0  0  0  0  0  0  0  0  0  0  0
    3.0573   -1.2179   -0.7620 C   0  0  0  0  0  0  0  0  0  0  0  0
    1.6458   -2.7515    0.4249 C   0  0  0  0  0  0  0  0  0  0  0  0
    0.3572   -2.1064    0.7859 C   0  0  0  0  0  0  0  0  0  0  0  0
    2.1341   -3.6436    1.1079 O   0  0  0  0  0  0  0  0  0  0  0  0
    0.3946   -0.9966    1.5466 C   0  0  0  0  0  0  0  0  0  0  0  0
   -0.8846   -2.4965    0.1396 C   0  0  0  0  0  0  0  0  0  0  0  0
   -0.7005   -0.0413    1.4691 C   0  0  0  0  0  0  0  0  0  0  0  0
   -1.9072   -1.6232    0.0937 C   0  0  0  0  0  0  0  0  0  0  0  0
   -1.7817   -0.2883    0.6933 C   0  0  0  0  0  0  0  0  0  0  0  0
   -2.7260    0.7917    0.4116 C   0  0  0  0  0  0  0  0  0  0  0  0
   -3.8198    0.9402    1.1926 C   0  0  0  0  0  0  0  0  0  0  0  0
   -2.5580    1.7126   -0.7170 C   0  0  0  0  0  0  0  0  0  0  0  0
   -4.7933    1.9885    0.9297 C   0  0  0  0  0  0  0  0  0  0  0  0
   -3.4596    2.6804   -0.9638 C   0  0  0  0  0  0  0  0  0  0  0  0
   -4.6252    2.8291   -0.1076 C   0  0  0  0  0  0  0  0  0  0  0  0
   -5.8357    4.1904   -0.4980 Br  0  0  0  0  0  0  0  0  0  0  0  0
    4.2912   -1.3231   -0.2300 C   0  0  0  0  0  0  0  0  0  0  0  0
    2.6011    0.0888   -1.2446 C   0  0  0  0  0  0  0  0  0  0  0  0
    5.0233   -0.1254    0.1459 C   0  0  0  0  0  0  0  0  0  0  0  0
    3.3196    1.1931   -0.9647 C   0  0  0  0  0  0  0  0  0  0  0  0
    1.1709    0.2000   -2.2066 Cl  0  0  0  0  0  0  0  0  0  0  0  0
    4.5539    1.0853   -0.2032 C   0  0  0  0  0  0  0  0  0  0  0  0
    1.5610   -2.3292   -1.5513 H   0  0  0  0  0  0  0  0  0  0  0  0
    1.1657   -0.8452    2.2956 H   0  0  0  0  0  0  0  0  0  0  0  0
   -0.9674   -3.4954   -0.2752 H   0  0  0  0  0  0  0  0  0  0  0  0
   -0.6618    0.8182    2.1324 H   0  0  0  0  0  0  0  0  0  0  0  0
   -2.8520   -1.8880   -0.3710 H   0  0  0  0  0  0  0  0  0  0  0  0
   -4.0091    0.2859    2.0388 H   0  0  0  0  0  0  0  0  0  0  0  0
   -1.6840    1.5908   -1.3492 H   0  0  0  0  0  0  0  0  0  0  0  0
   -5.6479    2.0642    1.5936 H   0  0  0  0  0  0  0  0  0  0  0  0
   -3.3275    3.3572   -1.8011 H   0  0  0  0  0  0  0  0  0  0  0  0
    4.7313   -2.2898   -0.0036 H   0  0  0  0  0  0  0  0  0  0  0  0
    5.9444   -0.2381    0.7082 H   0  0  0  0  0  0  0  0  0  0  0  0
    3.0185    2.1763   -1.3102 H   0  0  0  0  0  0  0  0  0  0  0  0
    5.0827    1.9953    0.0615 H   0  0  0  0  0  0  0  0  0  0  0  0
  1  2  1  0
  3  1  1  0
  3  4  1  0
  3  5  2  0
  4  6  2  0
  7  4  1  0
  6  8  1  0
  9  7  2  0
  8 10  2  0
 10  9  1  0
 10 11  1  0
 11 12  2  0
 13 11  1  0
 12 14  1  0
 15 13  2  0
 14 16  2  0
 16 15  1  0
 16 17  1  0
  2 18  2  0
 19  2  1  0
 18 20  1  0
 21 19  2  0
 19 22  1  0
 20 23  2  0
 23 21  1  0
  1 24  1  0
  6 25  1  0
  7 26  1  0
  8 27  1  0
  9 28  1  0
 12 29  1  0
 13 30  1  0
 14 31  1  0
 15 32  1  0
 18 33  1  0
 20 34  1  0
 21 35  1  0
 23 36  1  0
M  END
$$$$

     RDKit          3D

 36 38  0  0  0  0  0  0  0  0999 V2000
   -2.3865    1.0366   -1.4948 N   0  0  0  0  0  0  0  0  0  0  0  0
   -3.2143    0.1468   -0.8441 C   0  0  0  0  0  0  0  0  0  0  0  0
   -1.9338    2.1722   -0.8537 C   0  0  0  0  0  0  0  0  0  0  0  0
   -0.5562    2.0428   -0.3137 C   0  0  0  0  0  0  0  0  0  0  0  0
   -2.5709    3.2136   -0.7549 O   0  0  0  0  0  0  0  0  0  0  0  0
   -0.4159    1.6553    0.9678 C   0  0  0  0  0  0  0  0  0  0  0  0
    0.6033    2.0763   -1.1894 C   0  0  0  0  0  0  0  0  0  0  0  0
    0.8165    1.0029    1.3858 C   0  0  0  0  0  0  0  0  0  0  0  0
    1.7439    1.4808   -0.7961 C   0  0  0  0  0  0  0  0  0  0  0  0
    1.8273    0.8085    0.5070 C   0  0  0  0  0  0  0  0  0  0  0  0
    2.9468   -0.0575    0.8748 C   0  0  0  0  0  0  0  0  0  0  0  0
    2.8745   -1.3841    0.6225 C   0  0  0  0  0  0  0  0  0  0  0  0
    4.1975    0.4659    1.4340 C   0  0  0  0  0  0  0  0  0  0  0  0
    4.0411   -2.2400    0.7725 C   0  0  0  0  0  0  0  0  0  0  0  0
    5.2671   -0.3319    1.6072 C   0  0  0  0  0  0  0  0  0  0  0  0
    5.1956   -1.7390    1.2485 C   0  0  0  0  0  0  0  0  0  0  0  0
    6.7227   -2.7824    1.4740 Br  0  0  0  0  0  0  0  0  0  0  0  0
   -4.5056    0.4580   -0.6103 C   0  0  0  0  0  0  0  0  0  0  0  0
   -2.7353   -1.2036   -0.5299 C   0  0  0  0  0  0  0  0  0  0  0  0
   -5.3847   -0.4945    0.0488 C   0  0  0  0  0  0  0  0  0  0  0  0
   -3.5605   -2.0932    0.0557 C   0  0  0  0  0  0  0  0  0  0  0  0
   -1.1205   -1.6661   -0.9405 Cl  0  0  0  0  0  0  0  0  0  0  0  0
   -4.9283   -1.7177    0.3688 C   0  0  0  0  0  0  0  0  0  0  0  0
   -5.9390   -2.8734    1.1452 Cl  0  0  0  0  0  0  0  0  0  0  0  0
   -1.7129    0.6094   -2.1227 H   0  0  0  0  0  0  0  0  0  0  0  0
   -1.1321    1.9459    1.7304 H   0  0  0  0  0  0  0  0  0  0  0  0
    0.5316    2.6018   -2.1350 H   0  0  0  0  0  0  0  0  0  0  0  0
    0.9357    0.7866    2.4442 H   0  0  0  0  0  0  0  0  0  0  0  0
    2.6327    1.4980   -1.4190 H   0  0  0  0  0  0  0  0  0  0  0  0
    1.9358   -1.8620    0.3606 H   0  0  0  0  0  0  0  0  0  0  0  0
    4.2363    1.5170    1.7020 H   0  0  0  0  0  0  0  0  0  0  0  0
    3.9398   -3.2850    0.4994 H   0  0  0  0  0  0  0  0  0  0  0  0
    6.1910    0.0620    2.0172 H   0  0  0  0  0  0  0  0  0  0  0  0
   -4.9086    1.4353   -0.8649 H   0  0  0  0  0  0  0  0  0  0  0  0
   -6.4004   -0.1849    0.2721 H   0  0  0  0  0  0  0  0  0  0  0  0
   -3.2336   -3.1003    0.2905 H   0  0  0  0  0  0  0  0  0  0  0  0
  1  2  1  0
  3  1  1  0
  3  4  1  0
  3  5  2  0
  4  6  2  0
  7  4  1  0
  6  8  1  0
  9  7  2  0
  8 10  2  0
 10  9  1  0
 10 11  1  0
 11 12  2  0
 13 11  1  0
 12 14  1  0
 15 13  2  0
 14 16  2  0
 16 15  1  0
 16 17  1  0
  2 18  2  0
 19  2  1  0
 18 20  1  0
 21 19  2  0
 19 22  1  0
 20 23  2  0
 23 21  1  0
 23 24  1  0
  1 25  1  0
  6 26  1  0
  7 27  1  0
  8 28  1  0
  9 29  1  0
 12 30  1  0
 13 31  1  0
 14 32  1  0
 15 33  1  0
 18 34  1  0
 20 35  1  0
 21 36  1  0
M  END
$$$$

     RDKit          3D

 36 38  0  0  0  0  0  0  0  0999 V2000
   -2.6501   -1.4114    1.3245 N   0  0  0  0  0  0  0  0  0  0  0  0
   -3.3492   -0.2994    0.9179 C   0  0  0  0  0  0  0  0  0  0  0  0
   -2.0574   -2.2317    0.3903 C   0  0  0  0  0  0  0  0  0  0  0  0
   -0.6855   -1.8161    0.0081 C   0  0  0  0  0  0  0  0  0  0  0  0
   -2.5878   -3.2437   -0.0509 O   0  0  0  0  0  0  0  0  0  0  0  0
    0.3469   -2.2416    0.7593 C   0  0  0  0  0  0  0  0  0  0  0  0
   -0.4560   -0.8777   -1.0771 C   0  0  0  0  0  0  0  0  0  0  0  0
    1.6449   -1.5971    0.6250 C   0  0  0  0  0  0  0  0  0  0  0  0
    0.7522   -0.3029   -1.2144 C   0  0  0  0  0  0  0  0  0  0  0  0
    1.8465   -0.6187   -0.2881 C   0  0  0  0  0  0  0  0  0  0  0  0
    3.1353    0.0701   -0.3326 C   0  0  0  0  0  0  0  0  0  0  0  0
    3.3300    1.1731    0.4245 C   0  0  0  0  0  0  0  0  0  0  0  0
    4.2411   -0.3820   -1.1830 C   0  0  0  0  0  0  0  0  0  0  0  0
    4.6267    1.8305    0.4723 C   0  0  0  0  0  0  0  0  0  0  0  0
    5.4322    0.2424   -1.1625 C   0  0  0  0  0  0  0  0  0  0  0  0
    5.6422    1.3873   -0.2913 C   0  0  0  0  0  0  0  0  0  0  0  0
    7.3253    2.1860   -0.2794 Br  0  0  0  0  0  0  0  0  0  0  0  0
   -4.5933   -0.3810    0.4080 C   0  0  0  0  0  0  0  0  0  0  0  0
   -2.7928    0.9998    1.2645 C   0  0  0  0  0  0  0  0  0  0  0  0
   -5.4138    0.8158    0.2966 C   0  0  0  0  0  0  0  0  0  0  0  0
   -3.5420    2.1107    1.1356 C   0  0  0  0  0  0  0  0  0  0  0  0
   -4.9063    2.0117    0.6453 C   0  0  0  0  0  0  0  0  0  0  0  0
   -5.8397    3.4509    0.5166 Cl  0  0  0  0  0  0  0  0  0  0  0  0
   -3.1380   -1.9582    2.0262 H   0  0  0  0  0  0  0  0  0  0  0  0
    0.2798   -3.1396    1.3650 H   0  0  0  0  0  0  0  0  0  0  0  0
   -1.2696   -0.6631   -1.7619 H   0  0  0  0  0  0  0  0  0  0  0  0
    2.4655   -2.0031    1.2094 H   0  0  0  0  0  0  0  0  0  0  0  0
    0.9489    0.3989   -2.0189 H   0  0  0  0  0  0  0  0  0  0  0  0
    2.5310    1.6022    1.0220 H   0  0  0  0  0  0  0  0  0  0  0  0
    4.0708   -1.2370   -1.8305 H   0  0  0  0  0  0  0  0  0  0  0  0
    4.7389    2.6818    1.1356 H   0  0  0  0  0  0  0  0  0  0  0  0
    6.2457   -0.0982   -1.7938 H   0  0  0  0  0  0  0  0  0  0  0  0
   -4.9852   -1.3082    0.0004 H   0  0  0  0  0  0  0  0  0  0  0  0
   -1.7687    1.0531    1.6190 H   0  0  0  0  0  0  0  0  0  0  0  0
   -6.4250    0.7088   -0.0808 H   0  0  0  0  0  0  0  0  0  0  0  0
   -3.1432    3.0875    1.3867 H   0  0  0  0  0  0  0  0  0  0  0  0
  1  2  1  0
  3  1  1  0
  3  4  1  0
  3  5  2  0
  4  6  2  0
  7  4  1  0
  6  8  1  0
  9  7  2  0
  8 10  2  0
 10  9  1  0
 10 11  1  0
 11 12  2  0
 13 11  1  0
 12 14  1  0
 15 13  2  0
 14 16  2  0
 16 15  1  0
 16 17  1  0
  2 18  2  0
 19  2  1  0
 18 20  1  0
 21 19  2  0
 20 22  2  0
 22 21  1  0
 22 23  1  0
  1 24  1  0
  6 25  1  0
  7 26  1  0
  8 27  1  0
  9 28  1  0
 12 29  1  0
 13 30  1  0
 14 31  1  0
 15 32  1  0
 18 33  1  0
 19 34  1  0
 20 35  1  0
 21 36  1  0
M  END
$$$$

     RDKit          3D

 37 39  0  0  0  0  0  0  0  0999 V2000
    1.9283    2.1819   -0.6220 N   0  0  0  0  0  0  0  0  0  0  0  0
    2.7891    1.1482   -0.2926 C   0  0  0  0  0  0  0  0  0  0  0  0
    1.2878    2.8837    0.3805 C   0  0  0  0  0  0  0  0  0  0  0  0
   -0.0093    2.2944    0.7960 C   0  0  0  0  0  0  0  0  0  0  0  0
    1.7214    3.9251    0.8555 O   0  0  0  0  0  0  0  0  0  0  0  0
   -1.0634    2.4569   -0.0274 C   0  0  0  0  0  0  0  0  0  0  0  0
   -0.0531    1.2521    1.8082 C   0  0  0  0  0  0  0  0  0  0  0  0
   -2.0068    1.3605   -0.1913 C   0  0  0  0  0  0  0  0  0  0  0  0
   -0.9722    0.2747    1.7073 C   0  0  0  0  0  0  0  0  0  0  0  0
   -1.9281    0.2591    0.5932 C   0  0  0  0  0  0  0  0  0  0  0  0
   -2.7101   -0.9288    0.2520 C   0  0  0  0  0  0  0  0  0  0  0  0
   -3.9521   -1.0775    0.7690 C   0  0  0  0  0  0  0  0  0  0  0  0
   -2.2133   -1.9763   -0.6476 C   0  0  0  0  0  0  0  0  0  0  0  0
   -4.8540   -2.1019    0.2613 C   0  0  0  0  0  0  0  0  0  0  0  0
   -3.0250   -2.9649   -1.0694 C   0  0  0  0  0  0  0  0  0  0  0  0
   -4.4103   -3.0162   -0.6233 C   0  0  0  0  0  0  0  0  0  0  0  0
   -5.5032   -4.3661   -1.2990 Br  0  0  0  0  0  0  0  0  0  0  0  0
    3.9941    1.3833    0.2647 C   0  0  0  0  0  0  0  0  0  0  0  0
    2.4804   -0.1887   -0.8074 C   0  0  0  0  0  0  0  0  0  0  0  0
    5.0251    0.3550    0.2451 C   0  0  0  0  0  0  0  0  0  0  0  0
    3.4203   -1.1581   -0.7904 C   0  0  0  0  0  0  0  0  0  0  0  0
    1.2024   -0.3899   -1.2929 O   0  0  0  0  0  0  0  0  0  0  0  0
    6.7023    0.7868    0.9440 Br  0  0  0  0  0  0  0  0  0  0  0  0
    4.7468   -0.8629   -0.2564 C   0  0  0  0  0  0  0  0  0  0  0  0
    3.1219   -2.8918   -1.4228 Br  0  0  0  0  0  0  0  0  0  0  0  0
    2.3433    2.8314   -1.2846 H   0  0  0  0  0  0  0  0  0  0  0  0
   -1.2888    3.4159   -0.4825 H   0  0  0  0  0  0  0  0  0  0  0  0
    0.6537    1.2922    2.6302 H   0  0  0  0  0  0  0  0  0  0  0  0
   -2.7919    1.4702   -0.9322 H   0  0  0  0  0  0  0  0  0  0  0  0
   -1.0342   -0.5163    2.4489 H   0  0  0  0  0  0  0  0  0  0  0  0
   -4.3032   -0.4610    1.5938 H   0  0  0  0  0  0  0  0  0  0  0  0
   -1.1746   -1.9351   -0.9635 H   0  0  0  0  0  0  0  0  0  0  0  0
   -5.8764   -2.1061    0.6294 H   0  0  0  0  0  0  0  0  0  0  0  0
   -2.6552   -3.7375   -1.7369 H   0  0  0  0  0  0  0  0  0  0  0  0
    4.1929    2.3080    0.8005 H   0  0  0  0  0  0  0  0  0  0  0  0
    0.7143    0.4440   -1.1630 H   0  0  0  0  0  0  0  0  0  0  0  0
    5.5011   -1.6439   -0.2767 H   0  0  0  0  0  0  0  0  0  0  0  0
  1  2  1  0
  3  1  1  0
  3  4  1  0
  3  5  2  0
  4  6  2  0
  7  4  1  0
  6  8  1  0
  9  7  2  0
  8 10  2  0
 10  9  1  0
 10 11  1  0
 11 12  2  0
 13 11  1  0
 12 14  1  0
 15 13  2  0
 14 16  2  0
 16 15  1  0
 16 17  1  0
  2 18  2  0
 19  2  1  0
 18 20  1  0
 21 19  2  0
 19 22  1  0
 20 23  1  0
 20 24  2  0
 24 21  1  0
 21 25  1  0
  1 26  1  0
  6 27  1  0
  7 28  1  0
  8 29  1  0
  9 30  1  0
 12 31  1  0
 13 32  1  0
 14 33  1  0
 15 34  1  0
 18 35  1  0
 22 36  1  0
 24 37  1  0
M  END
$$$$

     RDKit          3D

 36 38  0  0  0  0  0  0  0  0999 V2000
   -1.9956   -2.2467    1.0508 N   0  0  0  0  0  0  0  0  0  0  0  0
   -2.9831   -1.2930    1.1282 C   0  0  0  0  0  0  0  0  0  0  0  0
   -1.4845   -2.6031   -0.1772 C   0  0  0  0  0  0  0  0  0  0  0  0
   -0.3084   -1.7979   -0.5897 C   0  0  0  0  0  0  0  0  0  0  0  0
   -1.9147   -3.5357   -0.8449 O   0  0  0  0  0  0  0  0  0  0  0  0
   -0.5070   -0.7295   -1.3836 C   0  0  0  0  0  0  0  0  0  0  0  0
    1.0193   -2.0836   -0.0777 C   0  0  0  0  0  0  0  0  0  0  0  0
    0.5533    0.2548   -1.5452 C   0  0  0  0  0  0  0  0  0  0  0  0
    2.0115   -1.1960   -0.2693 C   0  0  0  0  0  0  0  0  0  0  0  0
    1.7724    0.0590   -0.9913 C   0  0  0  0  0  0  0  0  0  0  0  0
    2.7954    1.0984   -1.1149 C   0  0  0  0  0  0  0  0  0  0  0  0
    2.9555    1.9952   -0.1171 C   0  0  0  0  0  0  0  0  0  0  0  0
    3.7459    1.1422   -2.2298 C   0  0  0  0  0  0  0  0  0  0  0  0
    4.1603    2.8057   -0.0284 C   0  0  0  0  0  0  0  0  0  0  0  0
    4.8296    1.9378   -2.1833 C   0  0  0  0  0  0  0  0  0  0  0  0
    5.0658    2.7831   -1.0237 C   0  0  0  0  0  0  0  0  0  0  0  0
    6.6250    3.8022   -0.9799 Br  0  0  0  0  0  0  0  0  0  0  0  0
   -4.2812   -1.5959    0.9411 C   0  0  0  0  0  0  0  0  0  0  0  0
   -2.6296   -0.0140    1.7228 C   0  0  0  0  0  0  0  0  0  0  0  0
   -5.3094   -0.8049    1.6000 C   0  0  0  0  0  0  0  0  0  0  0  0
   -3.5854    0.7640    2.2629 C   0  0  0  0  0  0  0  0  0  0  0  0
   -4.9791    0.3354    2.2364 C   0  0  0  0  0  0  0  0  0  0  0  0
   -6.2423    1.4086    3.0850 Br  0  0  0  0  0  0  0  0  0  0  0  0
   -2.1946   -3.0719    1.6086 H   0  0  0  0  0  0  0  0  0  0  0  0
   -1.4120   -0.6145   -1.9735 H   0  0  0  0  0  0  0  0  0  0  0  0
    1.1878   -3.0241    0.4342 H   0  0  0  0  0  0  0  0  0  0  0  0
    0.3628    1.0808   -2.2248 H   0  0  0  0  0  0  0  0  0  0  0  0
    3.0172   -1.3928    0.0908 H   0  0  0  0  0  0  0  0  0  0  0  0
    2.1990    2.1356    0.6490 H   0  0  0  0  0  0  0  0  0  0  0  0
    3.5540    0.5093   -3.0905 H   0  0  0  0  0  0  0  0  0  0  0  0
    4.2917    3.4245    0.8522 H   0  0  0  0  0  0  0  0  0  0  0  0
    5.5328    1.9641   -3.0097 H   0  0  0  0  0  0  0  0  0  0  0  0
   -4.5917   -2.3629    0.2388 H   0  0  0  0  0  0  0  0  0  0  0  0
   -1.5911    0.2973    1.7108 H   0  0  0  0  0  0  0  0  0  0  0  0
   -6.3343   -1.1535    1.5380 H   0  0  0  0  0  0  0  0  0  0  0  0
   -3.3352    1.7219    2.7049 H   0  0  0  0  0  0  0  0  0  0  0  0
  1  2  1  0
  3  1  1  0
  3  4  1  0
  3  5  2  0
  4  6  2  0
  7  4  1  0
  6  8  1  0
  9  7  2  0
  8 10  2  0
 10  9  1  0
 10 11  1  0
 11 12  2  0
 13 11  1  0
 12 14  1  0
 15 13  2  0
 14 16  2  0
 16 15  1  0
 16 17  1  0
  2 18  2  0
 19  2  1  0
 18 20  1  0
 21 19  2  0
 20 22  2  0
 22 21  1  0
 22 23  1  0
  1 24  1  0
  6 25  1  0
  7 26  1  0
  8 27  1  0
  9 28  1  0
 12 29  1  0
 13 30  1  0
 14 31  1  0
 15 32  1  0
 18 33  1  0
 19 34  1  0
 20 35  1  0
 21 36  1  0
M  END
$$$$

     RDKit          3D

 37 39  0  0  0  0  0  0  0  0999 V2000
    2.2690   -0.6045   -2.1821 N   0  0  0  0  0  0  0  0  0  0  0  0
    2.2036   -1.9517   -1.8953 C   0  0  0  0  0  0  0  0  0  0  0  0
    2.7785    0.2730   -1.2469 C   0  0  0  0  0  0  0  0  0  0  0  0
    1.7372    0.9239   -0.4098 C   0  0  0  0  0  0  0  0  0  0  0  0
    3.9668    0.5462   -1.1223 O   0  0  0  0  0  0  0  0  0  0  0  0
    1.3502    0.3179    0.7277 C   0  0  0  0  0  0  0  0  0  0  0  0
    1.0713    2.1378   -0.8494 C   0  0  0  0  0  0  0  0  0  0  0  0
    0.1306    0.7518    1.3923 C   0  0  0  0  0  0  0  0  0  0  0  0
   -0.0432    2.5491   -0.2182 C   0  0  0  0  0  0  0  0  0  0  0  0
   -0.5943    1.7878    0.9101 C   0  0  0  0  0  0  0  0  0  0  0  0
   -1.9127    2.0680    1.4763 C   0  0  0  0  0  0  0  0  0  0  0  0
   -2.0264    2.9483    2.4963 C   0  0  0  0  0  0  0  0  0  0  0  0
   -3.1390    1.4490    0.9639 C   0  0  0  0  0  0  0  0  0  0  0  0
   -3.3173    3.2294    3.1051 C   0  0  0  0  0  0  0  0  0  0  0  0
   -4.3360    1.7197    1.5155 C   0  0  0  0  0  0  0  0  0  0  0  0
   -4.4328    2.6409    2.6365 C   0  0  0  0  0  0  0  0  0  0  0  0
   -6.1155    2.9592    3.3697 Br  0  0  0  0  0  0  0  0  0  0  0  0
    3.3051   -2.7174   -1.7811 C   0  0  0  0  0  0  0  0  0  0  0  0
    0.8840   -2.5654   -1.7638 C   0  0  0  0  0  0  0  0  0  0  0  0
    3.1850   -4.1000   -1.3479 C   0  0  0  0  0  0  0  0  0  0  0  0
    0.7706   -3.8583   -1.4060 C   0  0  0  0  0  0  0  0  0  0  0  0
   -0.1869   -1.7450   -2.0388 O   0  0  0  0  0  0  0  0  0  0  0  0
    1.9694   -4.6468   -1.1657 C   0  0  0  0  0  0  0  0  0  0  0  0
    1.4139   -0.2747   -2.6226 H   0  0  0  0  0  0  0  0  0  0  0  0
    1.9710   -0.4259    1.2172 H   0  0  0  0  0  0  0  0  0  0  0  0
    1.5025    2.7016   -1.6698 H   0  0  0  0  0  0  0  0  0  0  0  0
   -0.1186    0.2736    2.3354 H   0  0  0  0  0  0  0  0  0  0  0  0
   -0.5523    3.4599   -0.5179 H   0  0  0  0  0  0  0  0  0  0  0  0
   -1.1629    3.4751    2.8930 H   0  0  0  0  0  0  0  0  0  0  0  0
   -3.0524    0.7662    0.1246 H   0  0  0  0  0  0  0  0  0  0  0  0
   -3.3430    3.9240    3.9382 H   0  0  0  0  0  0  0  0  0  0  0  0
   -5.2392    1.2585    1.1307 H   0  0  0  0  0  0  0  0  0  0  0  0
    4.2972   -2.3141   -1.9594 H   0  0  0  0  0  0  0  0  0  0  0  0
    4.0950   -4.6664   -1.1795 H   0  0  0  0  0  0  0  0  0  0  0  0
   -0.1878   -4.3516   -1.2995 H   0  0  0  0  0  0  0  0  0  0  0  0
   -0.9981   -2.2617   -1.8969 H   0  0  0  0  0  0  0  0  0  0  0  0
    1.8575   -5.6774   -0.8453 H   0  0  0  0  0  0  0  0  0  0  0  0
  1  2  1  0
  3  1  1  0
  3  4  1  0
  3  5  2  0
  4  6  2  0
  7  4  1  0
  6  8  1  0
  9  7  2  0
  8 10  2  0
 10  9  1  0
 10 11  1  0
 11 12  2  0
 13 11  1  0
 12 14  1  0
 15 13  2  0
 14 16  2  0
 16 15  1  0
 16 17  1  0
  2 18  2  0
 19  2  1  0
 18 20  1  0
 21 19  2  0
 19 22  1  0
 20 23  2  0
 23 21  1  0
  1 24  1  0
  6 25  1  0
  7 26  1  0
  8 27  1  0
  9 28  1  0
 12 29  1  0
 13 30  1  0
 14 31  1  0
 15 32  1  0
 18 33  1  0
 20 34  1  0
 21 35  1  0
 22 36  1  0
 23 37  1  0
M  END
$$$$

     RDKit          3D

 40 42  0  0  0  0  0  0  0  0999 V2000
    1.6838    1.8531    1.5362 N   0  0  0  0  0  0  0  0  0  0  0  0
    2.7033    1.0751    1.0286 C   0  0  0  0  0  0  0  0  0  0  0  0
    0.9946    2.7135    0.7066 C   0  0  0  0  0  0  0  0  0  0  0  0
   -0.2591    2.1355    0.1572 C   0  0  0  0  0  0  0  0  0  0  0  0
    1.3378    3.8626    0.4530 O   0  0  0  0  0  0  0  0  0  0  0  0
   -1.3955    2.2866    0.8628 C   0  0  0  0  0  0  0  0  0  0  0  0
   -0.2494    1.3042   -1.0327 C   0  0  0  0  0  0  0  0  0  0  0  0
   -2.5316    1.4206    0.5813 C   0  0  0  0  0  0  0  0  0  0  0  0
   -1.3133    0.5276   -1.3075 C   0  0  0  0  0  0  0  0  0  0  0  0
   -2.4820    0.5117   -0.4204 C   0  0  0  0  0  0  0  0  0  0  0  0
   -3.5752   -0.4464   -0.5778 C   0  0  0  0  0  0  0  0  0  0  0  0
   -3.5087   -1.6429    0.0482 C   0  0  0  0  0  0  0  0  0  0  0  0
   -4.7452   -0.1757   -1.4186 C   0  0  0  0  0  0  0  0  0  0  0  0
   -4.6088   -2.5912   -0.0291 C   0  0  0  0  0  0  0  0  0  0  0  0
   -5.7525   -1.0621   -1.5114 C   0  0  0  0  0  0  0  0  0  0  0  0
   -5.6917   -2.3167   -0.7788 C   0  0  0  0  0  0  0  0  0  0  0  0
   -7.1298   -3.4928   -0.9257 Br  0  0  0  0  0  0  0  0  0  0  0  0
    3.8749    1.6017    0.6274 C   0  0  0  0  0  0  0  0  0  0  0  0
    2.5474   -0.3756    1.0747 C   0  0  0  0  0  0  0  0  0  0  0  0
    4.9219    0.7378    0.1064 C   0  0  0  0  0  0  0  0  0  0  0  0
    3.5298   -1.1795    0.6256 C   0  0  0  0  0  0  0  0  0  0  0  0
    1.3659   -0.8316    1.6171 O   0  0  0  0  0  0  0  0  0  0  0  0
    4.7650   -0.6020    0.0980 C   0  0  0  0  0  0  0  0  0  0  0  0
    5.8046   -1.5472   -0.4207 C   0  0  0  0  0  0  0  0  0  0  0  0
    1.0779    1.3167    2.1524 H   0  0  0  0  0  0  0  0  0  0  0  0
   -1.5514    3.1482    1.5050 H   0  0  0  0  0  0  0  0  0  0  0  0
    0.6201    1.3359   -1.6814 H   0  0  0  0  0  0  0  0  0  0  0  0
   -3.4573    1.6266    1.1123 H   0  0  0  0  0  0  0  0  0  0  0  0
   -1.3347   -0.0979   -2.1940 H   0  0  0  0  0  0  0  0  0  0  0  0
   -2.6414   -1.9293    0.6359 H   0  0  0  0  0  0  0  0  0  0  0  0
   -4.7787    0.7647   -1.9599 H   0  0  0  0  0  0  0  0  0  0  0  0
   -4.5205   -3.5156    0.5308 H   0  0  0  0  0  0  0  0  0  0  0  0
   -6.6173   -0.8520   -2.1314 H   0  0  0  0  0  0  0  0  0  0  0  0
    4.0474    2.6730    0.6337 H   0  0  0  0  0  0  0  0  0  0  0  0
    5.8230    1.2146   -0.2679 H   0  0  0  0  0  0  0  0  0  0  0  0
    3.4428   -2.2588    0.6566 H   0  0  0  0  0  0  0  0  0  0  0  0
    1.3783   -1.8029    1.5778 H   0  0  0  0  0  0  0  0  0  0  0  0
    5.4051   -2.1392   -1.2506 H   0  0  0  0  0  0  0  0  0  0  0  0
    6.1313   -2.2323    0.3682 H   0  0  0  0  0  0  0  0  0  0  0  0
    6.6893   -1.0179   -0.7877 H   0  0  0  0  0  0  0  0  0  0  0  0
  1  2  1  0
  3  1  1  0
  3  4  1  0
  3  5  2  0
  4  6  2  0
  7  4  1  0
  6  8  1  0
  9  7  2  0
  8 10  2  0
 10  9  1  0
 10 11  1  0
 11 12  2  0
 13 11  1  0
 12 14  1  0
 15 13  2  0
 14 16  2  0
 16 15  1  0
 16 17  1  0
  2 18  2  0
 19  2  1  0
 18 20  1  0
 21 19  2  0
 19 22  1  0
 20 23  2  0
 23 21  1  0
 23 24  1  0
  1 25  1  0
  6 26  1  0
  7 27  1  0
  8 28  1  0
  9 29  1  0
 12 30  1  0
 13 31  1  0
 14 32  1  0
 15 33  1  0
 18 34  1  0
 20 35  1  0
 21 36  1  0
 22 37  1  0
 24 38  1  0
 24 39  1  0
 24 40  1  0
M  END
$$$$

     RDKit          3D

 36 38  0  0  0  0  0  0  0  0999 V2000
   -1.8213    2.1101    1.4510 N   0  0  0  0  0  0  0  0  0  0  0  0
   -2.7356    1.0838    1.3663 C   0  0  0  0  0  0  0  0  0  0  0  0
   -1.4834    2.8371    0.3277 C   0  0  0  0  0  0  0  0  0  0  0  0
   -0.2944    2.3098   -0.3913 C   0  0  0  0  0  0  0  0  0  0  0  0
   -2.0630    3.8510   -0.0423 O   0  0  0  0  0  0  0  0  0  0  0  0
   -0.4992    1.3843   -1.3478 C   0  0  0  0  0  0  0  0  0  0  0  0
    1.0478    2.5193    0.1276 C   0  0  0  0  0  0  0  0  0  0  0  0
    0.5265    0.3818   -1.5969 C   0  0  0  0  0  0  0  0  0  0  0  0
    1.9954    1.5943   -0.1115 C   0  0  0  0  0  0  0  0  0  0  0  0
    1.6787    0.3877   -0.8871 C   0  0  0  0  0  0  0  0  0  0  0  0
    2.5181   -0.8079   -0.8628 C   0  0  0  0  0  0  0  0  0  0  0  0
    2.3334   -1.7312    0.1081 C   0  0  0  0  0  0  0  0  0  0  0  0
    3.6218   -1.0157   -1.8051 C   0  0  0  0  0  0  0  0  0  0  0  0
    3.2732   -2.8268    0.2893 C   0  0  0  0  0  0  0  0  0  0  0  0
    4.4733   -2.0477   -1.6595 C   0  0  0  0  0  0  0  0  0  0  0  0
    4.3042   -2.9854   -0.5609 C   0  0  0  0  0  0  0  0  0  0  0  0
    5.5387   -4.3707   -0.3896 Br  0  0  0  0  0  0  0  0  0  0  0  0
   -4.0538    1.3128    1.2103 C   0  0  0  0  0  0  0  0  0  0  0  0
   -2.2604   -0.2892    1.4800 C   0  0  0  0  0  0  0  0  0  0  0  0
   -4.9714    0.1959    1.0379 C   0  0  0  0  0  0  0  0  0  0  0  0
   -3.1080   -1.3232    1.3502 C   0  0  0  0  0  0  0  0  0  0  0  0
   -0.9519   -0.5049    1.7311 F   0  0  0  0  0  0  0  0  0  0  0  0
   -4.5179   -1.0698    1.1025 C   0  0  0  0  0  0  0  0  0  0  0  0
   -1.0451    1.9290    2.0791 H   0  0  0  0  0  0  0  0  0  0  0  0
   -1.3489    1.4407   -2.0209 H   0  0  0  0  0  0  0  0  0  0  0  0
    1.2607    3.4310    0.6754 H   0  0  0  0  0  0  0  0  0  0  0  0
    0.3785   -0.2915   -2.4361 H   0  0  0  0  0  0  0  0  0  0  0  0
    3.0131    1.7222    0.2445 H   0  0  0  0  0  0  0  0  0  0  0  0
    1.4722   -1.6954    0.7700 H   0  0  0  0  0  0  0  0  0  0  0  0
    3.7365   -0.3093   -2.6217 H   0  0  0  0  0  0  0  0  0  0  0  0
    3.1079   -3.5034    1.1213 H   0  0  0  0  0  0  0  0  0  0  0  0
    5.2903   -2.1931   -2.3582 H   0  0  0  0  0  0  0  0  0  0  0  0
   -4.4518    2.3217    1.1519 H   0  0  0  0  0  0  0  0  0  0  0  0
   -6.0189    0.4159    0.8558 H   0  0  0  0  0  0  0  0  0  0  0  0
   -2.7613   -2.3461    1.4341 H   0  0  0  0  0  0  0  0  0  0  0  0
   -5.1840   -1.9173    0.9772 H   0  0  0  0  0  0  0  0  0  0  0  0
  1  2  1  0
  3  1  1  0
  3  4  1  0
  3  5  2  0
  4  6  2  0
  7  4  1  0
  6  8  1  0
  9  7  2  0
  8 10  2  0
 10  9  1  0
 10 11  1  0
 11 12  2  0
 13 11  1  0
 12 14  1  0
 15 13  2  0
 14 16  2  0
 16 15  1  0
 16 17  1  0
  2 18  2  0
 19  2  1  0
 18 20  1  0
 21 19  2  0
 19 22  1  0
 20 23  2  0
 23 21  1  0
  1 24  1  0
  6 25  1  0
  7 26  1  0
  8 27  1  0
  9 28  1  0
 12 29  1  0
 13 30  1  0
 14 31  1  0
 15 32  1  0
 18 33  1  0
 20 34  1  0
 21 35  1  0
 23 36  1  0
M  END
$$$$

     RDKit          3D

 36 38  0  0  0  0  0  0  0  0999 V2000
    2.2422   -0.3490    1.7579 N   0  0  0  0  0  0  0  0  0  0  0  0
    3.1180    0.1411    0.8265 C   0  0  0  0  0  0  0  0  0  0  0  0
    1.8076   -1.6546    1.7324 C   0  0  0  0  0  0  0  0  0  0  0  0
    0.4447   -1.8087    1.1622 C   0  0  0  0  0  0  0  0  0  0  0  0
    2.4293   -2.6056    2.1890 O   0  0  0  0  0  0  0  0  0  0  0  0
    0.3192   -1.9514   -0.1708 C   0  0  0  0  0  0  0  0  0  0  0  0
   -0.7336   -1.5303    1.9673 C   0  0  0  0  0  0  0  0  0  0  0  0
   -0.9021   -1.4988   -0.8235 C   0  0  0  0  0  0  0  0  0  0  0  0
   -1.8659   -1.1279    1.3617 C   0  0  0  0  0  0  0  0  0  0  0  0
   -1.9179   -0.9744   -0.0982 C   0  0  0  0  0  0  0  0  0  0  0  0
   -2.9508   -0.1881   -0.7711 C   0  0  0  0  0  0  0  0  0  0  0  0
   -4.1069   -0.7848   -1.1393 C   0  0  0  0  0  0  0  0  0  0  0  0
   -2.8164    1.2524   -1.0115 C   0  0  0  0  0  0  0  0  0  0  0  0
   -5.2300   -0.0027   -1.6334 C   0  0  0  0  0  0  0  0  0  0  0  0
   -3.8426    1.9725   -1.5005 C   0  0  0  0  0  0  0  0  0  0  0  0
   -5.1078    1.3256   -1.8100 C   0  0  0  0  0  0  0  0  0  0  0  0
   -6.5031    2.3830   -2.4474 Br  0  0  0  0  0  0  0  0  0  0  0  0
    2.6988    0.9098   -0.1987 C   0  0  0  0  0  0  0  0  0  0  0  0
    4.5382    0.0809    1.1495 C   0  0  0  0  0  0  0  0  0  0  0  0
    3.6352    1.7931   -0.8763 C   0  0  0  0  0  0  0  0  0  0  0  0
    5.4113    0.8733    0.4996 C   0  0  0  0  0  0  0  0  0  0  0  0
    4.9329    1.7696   -0.5314 C   0  0  0  0  0  0  0  0  0  0  0  0
    5.8235    2.5675   -1.1514 F   0  0  0  0  0  0  0  0  0  0  0  0
    1.6678    0.3197    2.2564 H   0  0  0  0  0  0  0  0  0  0  0  0
    1.0490   -2.5046   -0.7555 H   0  0  0  0  0  0  0  0  0  0  0  0
   -0.6784   -1.6817    3.0413 H   0  0  0  0  0  0  0  0  0  0  0  0
   -1.0081   -1.7003   -1.8865 H   0  0  0  0  0  0  0  0  0  0  0  0
   -2.7693   -0.9291    1.9307 H   0  0  0  0  0  0  0  0  0  0  0  0
   -4.2374   -1.8613   -1.0792 H   0  0  0  0  0  0  0  0  0  0  0  0
   -1.8650    1.7215   -0.7841 H   0  0  0  0  0  0  0  0  0  0  0  0
   -6.1544   -0.5263   -1.8544 H   0  0  0  0  0  0  0  0  0  0  0  0
   -3.7365    3.0375   -1.6773 H   0  0  0  0  0  0  0  0  0  0  0  0
    1.6901    0.8446   -0.5927 H   0  0  0  0  0  0  0  0  0  0  0  0
    4.8681   -0.6150    1.9157 H   0  0  0  0  0  0  0  0  0  0  0  0
    3.2770    2.4490   -1.6606 H   0  0  0  0  0  0  0  0  0  0  0  0
    6.4733    0.8535    0.7108 H   0  0  0  0  0  0  0  0  0  0  0  0
  1  2  1  0
  3  1  1  0
  3  4  1  0
  3  5  2  0
  4  6  2  0
  7  4  1  0
  6  8  1  0
  9  7  2  0
  8 10  2  0
 10  9  1  0
 10 11  1  0
 11 12  2  0
 13 11  1  0
 12 14  1  0
 15 13  2  0
 14 16  2  0
 16 15  1  0
 16 17  1  0
  2 18  2  0
 19  2  1  0
 18 20  1  0
 21 19  2  0
 20 22  2  0
 22 21  1  0
 22 23  1  0
  1 24  1  0
  6 25  1  0
  7 26  1  0
  8 27  1  0
  9 28  1  0
 12 29  1  0
 13 30  1  0
 14 31  1  0
 15 32  1  0
 18 33  1  0
 19 34  1  0
 20 35  1  0
 21 36  1  0
M  END
$$$$

     RDKit          3D

 36 38  0  0  0  0  0  0  0  0999 V2000
    2.2122   -1.6410    1.1088 N   0  0  0  0  0  0  0  0  0  0  0  0
    3.1766   -1.0462    0.3288 C   0  0  0  0  0  0  0  0  0  0  0  0
    1.6886   -0.9581    2.1840 C   0  0  0  0  0  0  0  0  0  0  0  0
    0.4212   -0.2480    1.8788 C   0  0  0  0  0  0  0  0  0  0  0  0
    2.1816   -0.9711    3.3055 O   0  0  0  0  0  0  0  0  0  0  0  0
   -0.7366   -0.9106    2.0596 C   0  0  0  0  0  0  0  0  0  0  0  0
    0.4186    1.0501    1.2271 C   0  0  0  0  0  0  0  0  0  0  0  0
   -1.9499   -0.4127    1.4290 C   0  0  0  0  0  0  0  0  0  0  0  0
   -0.6956    1.4761    0.6044 C   0  0  0  0  0  0  0  0  0  0  0  0
   -1.9050    0.6448    0.5863 C   0  0  0  0  0  0  0  0  0  0  0  0
   -3.0283    0.8994   -0.3130 C   0  0  0  0  0  0  0  0  0  0  0  0
   -3.1320    0.2016   -1.4670 C   0  0  0  0  0  0  0  0  0  0  0  0
   -4.0756    1.8801   -0.0132 C   0  0  0  0  0  0  0  0  0  0  0  0
   -4.3285    0.2897   -2.2887 C   0  0  0  0  0  0  0  0  0  0  0  0
   -5.1647    1.9949   -0.7958 C   0  0  0  0  0  0  0  0  0  0  0  0
   -5.3111    1.1526   -1.9693 C   0  0  0  0  0  0  0  0  0  0  0  0
   -6.8613    1.3242   -2.9855 Br  0  0  0  0  0  0  0  0  0  0  0  0
    4.4732   -1.0377    0.6963 C   0  0  0  0  0  0  0  0  0  0  0  0
    2.8242   -0.7493   -1.0539 C   0  0  0  0  0  0  0  0  0  0  0  0
    5.5148   -0.9845   -0.3164 C   0  0  0  0  0  0  0  0  0  0  0  0
    3.7897   -0.6448   -1.9868 C   0  0  0  0  0  0  0  0  0  0  0  0
    5.1842   -0.8055   -1.6080 C   0  0  0  0  0  0  0  0  0  0  0  0
    2.4343   -2.6011    1.3548 H   0  0  0  0  0  0  0  0  0  0  0  0
   -0.8335   -1.6828    2.8182 H   0  0  0  0  0  0  0  0  0  0  0  0
    1.3206    1.6517    1.2611 H   0  0  0  0  0  0  0  0  0  0  0  0
   -2.8908   -0.8846    1.6998 H   0  0  0  0  0  0  0  0  0  0  0  0
   -0.7294    2.4432    0.1130 H   0  0  0  0  0  0  0  0  0  0  0  0
   -2.3204   -0.4214   -1.8294 H   0  0  0  0  0  0  0  0  0  0  0  0
   -3.9440    2.5210    0.8556 H   0  0  0  0  0  0  0  0  0  0  0  0
   -4.3933   -0.3564   -3.1588 H   0  0  0  0  0  0  0  0  0  0  0  0
   -5.9340    2.7265   -0.5698 H   0  0  0  0  0  0  0  0  0  0  0  0
    4.7672   -1.0183    1.7413 H   0  0  0  0  0  0  0  0  0  0  0  0
    1.7778   -0.6110   -1.3092 H   0  0  0  0  0  0  0  0  0  0  0  0
    6.5491   -1.0885   -0.0031 H   0  0  0  0  0  0  0  0  0  0  0  0
    3.5548   -0.4261   -3.0212 H   0  0  0  0  0  0  0  0  0  0  0  0
    5.9454   -0.7561   -2.3802 H   0  0  0  0  0  0  0  0  0  0  0  0
  1  2  1  0
  3  1  1  0
  3  4  1  0
  3  5  2  0
  4  6  2  0
  7  4  1  0
  6  8  1  0
  9  7  2  0
  8 10  2  0
 10  9  1  0
 10 11  1  0
 11 12  2  0
 13 11  1  0
 12 14  1  0
 15 13  2  0
 14 16  2  0
 16 15  1  0
 16 17  1  0
  2 18  2  0
 19  2  1  0
 18 20  1  0
 21 19  2  0
 20 22  2  0
 22 21  1  0
  1 23  1  0
  6 24  1  0
  7 25  1  0
  8 26  1  0
  9 27  1  0
 12 28  1  0
 13 29  1  0
 14 30  1  0
 15 31  1  0
 18 32  1  0
 19 33  1  0
 20 34  1  0
 21 35  1  0
 22 36  1  0
M  END
$$$$

     RDKit          3D

 36 38  0  0  0  0  0  0  0  0999 V2000
    1.9987    1.4624    1.7617 N   0  0  0  0  0  0  0  0  0  0  0  0
    2.8792    1.0888    0.7728 C   0  0  0  0  0  0  0  0  0  0  0  0
    1.5731    0.5461    2.7021 C   0  0  0  0  0  0  0  0  0  0  0  0
    0.3243   -0.1653    2.3251 C   0  0  0  0  0  0  0  0  0  0  0  0
    2.1366    0.3369    3.7694 O   0  0  0  0  0  0  0  0  0  0  0  0
   -0.8463    0.4732    2.5143 C   0  0  0  0  0  0  0  0  0  0  0  0
    0.3661   -1.3524    1.4869 C   0  0  0  0  0  0  0  0  0  0  0  0
   -1.9560    0.1963    1.6116 C   0  0  0  0  0  0  0  0  0  0  0  0
   -0.6648   -1.6090    0.6613 C   0  0  0  0  0  0  0  0  0  0  0  0
   -1.8156   -0.6986    0.6061 C   0  0  0  0  0  0  0  0  0  0  0  0
   -2.7007   -0.6201   -0.5537 C   0  0  0  0  0  0  0  0  0  0  0  0
   -3.8215   -1.3754   -0.5892 C   0  0  0  0  0  0  0  0  0  0  0  0
   -2.4144    0.2389   -1.7068 C   0  0  0  0  0  0  0  0  0  0  0  0
   -4.7577   -1.2761   -1.6984 C   0  0  0  0  0  0  0  0  0  0  0  0
   -3.2687    0.3158   -2.7434 C   0  0  0  0  0  0  0  0  0  0  0  0
   -4.4958   -0.4640   -2.7387 C   0  0  0  0  0  0  0  0  0  0  0  0
   -5.6495   -0.2966   -4.1922 Br  0  0  0  0  0  0  0  0  0  0  0  0
    4.1868    0.8816    1.0265 C   0  0  0  0  0  0  0  0  0  0  0  0
    2.3903    0.9809   -0.5972 C   0  0  0  0  0  0  0  0  0  0  0  0
    5.0734    0.4487   -0.0446 C   0  0  0  0  0  0  0  0  0  0  0  0
    3.2091    0.6057   -1.5925 C   0  0  0  0  0  0  0  0  0  0  0  0
    1.0988    1.2791   -0.8503 F   0  0  0  0  0  0  0  0  0  0  0  0
    4.5949    0.3177   -1.2927 C   0  0  0  0  0  0  0  0  0  0  0  0
    5.3964   -0.0799   -2.2994 F   0  0  0  0  0  0  0  0  0  0  0  0
    1.2804    2.1146    1.4639 H   0  0  0  0  0  0  0  0  0  0  0  0
   -1.0519    1.0114    3.4348 H   0  0  0  0  0  0  0  0  0  0  0  0
    1.2244   -2.0116    1.5582 H   0  0  0  0  0  0  0  0  0  0  0  0
   -2.9301    0.5994    1.8745 H   0  0  0  0  0  0  0  0  0  0  0  0
   -0.6745   -2.4896    0.0270 H   0  0  0  0  0  0  0  0  0  0  0  0
   -4.0552   -2.0860    0.1988 H   0  0  0  0  0  0  0  0  0  0  0  0
   -1.4921    0.8125   -1.6993 H   0  0  0  0  0  0  0  0  0  0  0  0
   -5.6595   -1.8779   -1.6556 H   0  0  0  0  0  0  0  0  0  0  0  0
   -3.0506    0.9546   -3.5926 H   0  0  0  0  0  0  0  0  0  0  0  0
    4.5960    0.9801    2.0278 H   0  0  0  0  0  0  0  0  0  0  0  0
    6.1111    0.2354    0.1847 H   0  0  0  0  0  0  0  0  0  0  0  0
    2.8656    0.5222   -2.6150 H   0  0  0  0  0  0  0  0  0  0  0  0
  1  2  1  0
  3  1  1  0
  3  4  1  0
  3  5  2  0
  4  6  2  0
  7  4  1  0
  6  8  1  0
  9  7  2  0
  8 10  2  0
 10  9  1  0
 10 11  1  0
 11 12  2  0
 13 11  1  0
 12 14  1  0
 15 13  2  0
 14 16  2  0
 16 15  1  0
 16 17  1  0
  2 18  2  0
 19  2  1  0
 18 20  1  0
 21 19  2  0
 19 22  1  0
 20 23  2  0
 23 21  1  0
 23 24  1  0
  1 25  1  0
  6 26  1  0
  7 27  1  0
  8 28  1  0
  9 29  1  0
 12 30  1  0
 13 31  1  0
 14 32  1  0
 15 33  1  0
 18 34  1  0
 20 35  1  0
 21 36  1  0
M  END
$$$$

     RDKit          3D

 37 39  0  0  0  0  0  0  0  0999 V2000
   -2.1588    1.4392    1.3609 N   0  0  0  0  0  0  0  0  0  0  0  0
   -3.1499    0.7836    0.6541 C   0  0  0  0  0  0  0  0  0  0  0  0
   -1.5229    0.7911    2.4005 C   0  0  0  0  0  0  0  0  0  0  0  0
   -0.2030    0.2271    2.0283 C   0  0  0  0  0  0  0  0  0  0  0  0
   -1.9600    0.7423    3.5428 O   0  0  0  0  0  0  0  0  0  0  0  0
   -0.1652   -0.9695    1.4140 C   0  0  0  0  0  0  0  0  0  0  0  0
    0.9991    1.0401    2.0923 C   0  0  0  0  0  0  0  0  0  0  0  0
    0.9503   -1.2831    0.5340 C   0  0  0  0  0  0  0  0  0  0  0  0
    2.0626    0.7094    1.3382 C   0  0  0  0  0  0  0  0  0  0  0  0
    2.0227   -0.4614    0.4518 C   0  0  0  0  0  0  0  0  0  0  0  0
    3.0568   -0.7214   -0.5533 C   0  0  0  0  0  0  0  0  0  0  0  0
    4.0943   -1.5213   -0.2105 C   0  0  0  0  0  0  0  0  0  0  0  0
    3.1224   -0.0523   -1.8652 C   0  0  0  0  0  0  0  0  0  0  0  0
    5.3378   -1.4967   -0.9625 C   0  0  0  0  0  0  0  0  0  0  0  0
    4.2500   -0.0868   -2.6004 C   0  0  0  0  0  0  0  0  0  0  0  0
    1.7343    0.7835   -2.4674 Cl  0  0  0  0  0  0  0  0  0  0  0  0
    5.4103   -0.8061   -2.1125 C   0  0  0  0  0  0  0  0  0  0  0  0
    6.8584   -0.7632   -3.0399 Cl  0  0  0  0  0  0  0  0  0  0  0  0
   -4.3598    0.5320    1.1945 C   0  0  0  0  0  0  0  0  0  0  0  0
   -2.9623    0.6104   -0.7842 C   0  0  0  0  0  0  0  0  0  0  0  0
   -5.5014    0.2036    0.3426 C   0  0  0  0  0  0  0  0  0  0  0  0
   -3.9980    0.2750   -1.5691 C   0  0  0  0  0  0  0  0  0  0  0  0
   -1.7037    0.8046   -1.3024 O   0  0  0  0  0  0  0  0  0  0  0  0
   -7.3648   -0.0871    1.1800 I   0  0  0  0  0  0  0  0  0  0  0  0
   -5.3155    0.0779   -0.9876 C   0  0  0  0  0  0  0  0  0  0  0  0
   -2.4427    2.3730    1.6437 H   0  0  0  0  0  0  0  0  0  0  0  0
   -0.9182   -1.7315    1.5911 H   0  0  0  0  0  0  0  0  0  0  0  0
    1.0200    1.8904    2.7662 H   0  0  0  0  0  0  0  0  0  0  0  0
    0.9046   -2.2218   -0.0108 H   0  0  0  0  0  0  0  0  0  0  0  0
    2.9777    1.2925    1.3766 H   0  0  0  0  0  0  0  0  0  0  0  0
    4.0324   -2.2085    0.6291 H   0  0  0  0  0  0  0  0  0  0  0  0
    6.1839   -2.0541   -0.5735 H   0  0  0  0  0  0  0  0  0  0  0  0
    4.3126    0.4042   -3.5659 H   0  0  0  0  0  0  0  0  0  0  0  0
   -4.4891    0.4792    2.2719 H   0  0  0  0  0  0  0  0  0  0  0  0
   -3.8713    0.1458   -2.6384 H   0  0  0  0  0  0  0  0  0  0  0  0
   -1.1178    1.0315   -0.5574 H   0  0  0  0  0  0  0  0  0  0  0  0
   -6.1259   -0.1712   -1.6654 H   0  0  0  0  0  0  0  0  0  0  0  0
  1  2  1  0
  3  1  1  0
  3  4  1  0
  3  5  2  0
  4  6  2  0
  7  4  1  0
  6  8  1  0
  9  7  2  0
  8 10  2  0
 10  9  1  0
 10 11  1  0
 11 12  2  0
 13 11  1  0
 12 14  1  0
 15 13  2  0
 13 16  1  0
 14 17  2  0
 17 15  1  0
 17 18  1  0
  2 19  2  0
 20  2  1  0
 19 21  1  0
 22 20  2  0
 20 23  1  0
 21 24  1  0
 21 25  2  0
 25 22  1  0
  1 26  1  0
  6 27  1  0
  7 28  1  0
  8 29  1  0
  9 30  1  0
 12 31  1  0
 14 32  1  0
 15 33  1  0
 19 34  1  0
 22 35  1  0
 23 36  1  0
 25 37  1  0
M  END
$$$$

     RDKit          3D

 36 38  0  0  0  0  0  0  0  0999 V2000
   -2.5636   -1.3511    1.0259 N   0  0  0  0  0  0  0  0  0  0  0  0
   -3.4709   -0.6537    0.2535 C   0  0  0  0  0  0  0  0  0  0  0  0
   -1.8543   -0.7184    2.0260 C   0  0  0  0  0  0  0  0  0  0  0  0
   -0.4768   -0.3341    1.6287 C   0  0  0  0  0  0  0  0  0  0  0  0
   -2.2774   -0.5169    3.1581 O   0  0  0  0  0  0  0  0  0  0  0  0
   -0.2731    0.8941    1.1185 C   0  0  0  0  0  0  0  0  0  0  0  0
    0.6163   -1.2889    1.6799 C   0  0  0  0  0  0  0  0  0  0  0  0
    0.9377    1.1562    0.3573 C   0  0  0  0  0  0  0  0  0  0  0  0
    1.7789   -1.0003    1.0677 C   0  0  0  0  0  0  0  0  0  0  0  0
    1.9659    0.2755    0.3631 C   0  0  0  0  0  0  0  0  0  0  0  0
    3.2197    0.6268   -0.3094 C   0  0  0  0  0  0  0  0  0  0  0  0
    4.1858    1.2336    0.4199 C   0  0  0  0  0  0  0  0  0  0  0  0
    3.5570    0.2399   -1.6908 C   0  0  0  0  0  0  0  0  0  0  0  0
    5.5692    1.2352   -0.0256 C   0  0  0  0  0  0  0  0  0  0  0  0
    4.8261    0.3110   -2.1345 C   0  0  0  0  0  0  0  0  0  0  0  0
    2.3074   -0.2955   -2.7579 Cl  0  0  0  0  0  0  0  0  0  0  0  0
    5.8745    0.7919   -1.2561 C   0  0  0  0  0  0  0  0  0  0  0  0
    7.4960    0.7940   -1.8300 Cl  0  0  0  0  0  0  0  0  0  0  0  0
   -4.6434   -0.2554    0.7901 C   0  0  0  0  0  0  0  0  0  0  0  0
   -3.3206   -0.6467   -1.2112 C   0  0  0  0  0  0  0  0  0  0  0  0
   -5.8035   -0.0281   -0.0517 C   0  0  0  0  0  0  0  0  0  0  0  0
   -4.3922   -0.3801   -1.9861 C   0  0  0  0  0  0  0  0  0  0  0  0
   -1.6506   -0.9975   -1.9783 Br  0  0  0  0  0  0  0  0  0  0  0  0
   -5.6831   -0.0876   -1.3881 C   0  0  0  0  0  0  0  0  0  0  0  0
   -2.0541   -2.0780    0.5362 H   0  0  0  0  0  0  0  0  0  0  0  0
   -0.9602    1.7127    1.3035 H   0  0  0  0  0  0  0  0  0  0  0  0
    0.4767   -2.2158    2.2260 H   0  0  0  0  0  0  0  0  0  0  0  0
    0.9893    2.0940   -0.1879 H   0  0  0  0  0  0  0  0  0  0  0  0
    2.6123   -1.6954    1.0974 H   0  0  0  0  0  0  0  0  0  0  0  0
    3.9618    1.7373    1.3562 H   0  0  0  0  0  0  0  0  0  0  0  0
    6.3269    1.6116    0.6538 H   0  0  0  0  0  0  0  0  0  0  0  0
    5.0879    0.0308   -3.1488 H   0  0  0  0  0  0  0  0  0  0  0  0
   -4.7555   -0.1073    1.8608 H   0  0  0  0  0  0  0  0  0  0  0  0
   -6.7521    0.1903    0.4244 H   0  0  0  0  0  0  0  0  0  0  0  0
   -4.3257   -0.3648   -3.0691 H   0  0  0  0  0  0  0  0  0  0  0  0
   -6.5325    0.0809   -2.0415 H   0  0  0  0  0  0  0  0  0  0  0  0
  1  2  1  0
  3  1  1  0
  3  4  1  0
  3  5  2  0
  4  6  2  0
  7  4  1  0
  6  8  1  0
  9  7  2  0
  8 10  2  0
 10  9  1  0
 10 11  1  0
 11 12  2  0
 13 11  1  0
 12 14  1  0
 15 13  2  0
 13 16  1  0
 14 17  2  0
 17 15  1  0
 17 18  1  0
  2 19  2  0
 20  2  1  0
 19 21  1  0
 22 20  2  0
 20 23  1  0
 21 24  2  0
 24 22  1  0
  1 25  1  0
  6 26  1  0
  7 27  1  0
  8 28  1  0
  9 29  1  0
 12 30  1  0
 14 31  1  0
 15 32  1  0
 19 33  1  0
 21 34  1  0
 22 35  1  0
 24 36  1  0
M  END
$$$$

     RDKit          3D

 39 41  0  0  0  0  0  0  0  0999 V2000
    1.8495    1.4878    1.6522 N   0  0  0  0  0  0  0  0  0  0  0  0
    2.7412    0.9230    0.7702 C   0  0  0  0  0  0  0  0  0  0  0  0
    1.1238    0.6844    2.5033 C   0  0  0  0  0  0  0  0  0  0  0  0
   -0.1580    0.2071    1.9281 C   0  0  0  0  0  0  0  0  0  0  0  0
    1.4656    0.4362    3.6532 O   0  0  0  0  0  0  0  0  0  0  0  0
   -0.1959   -1.0131    1.3602 C   0  0  0  0  0  0  0  0  0  0  0  0
   -1.3553    1.0288    1.9708 C   0  0  0  0  0  0  0  0  0  0  0  0
   -1.4109   -1.4571    0.6927 C   0  0  0  0  0  0  0  0  0  0  0  0
   -2.4613    0.6275    1.3189 C   0  0  0  0  0  0  0  0  0  0  0  0
   -2.4721   -0.6282    0.5575 C   0  0  0  0  0  0  0  0  0  0  0  0
   -3.5555   -0.9855   -0.3606 C   0  0  0  0  0  0  0  0  0  0  0  0
   -3.4978   -0.5184   -1.6301 C   0  0  0  0  0  0  0  0  0  0  0  0
   -4.8043   -1.6508    0.0507 C   0  0  0  0  0  0  0  0  0  0  0  0
   -4.7155   -0.3070   -2.3961 C   0  0  0  0  0  0  0  0  0  0  0  0
   -5.9170   -1.5475   -0.7011 C   0  0  0  0  0  0  0  0  0  0  0  0
   -4.8291   -2.5918    1.4999 Cl  0  0  0  0  0  0  0  0  0  0  0  0
   -5.8799   -0.8039   -1.9461 C   0  0  0  0  0  0  0  0  0  0  0  0
   -7.3403   -0.6012   -2.8302 Cl  0  0  0  0  0  0  0  0  0  0  0  0
    3.9480    0.4765    1.1651 C   0  0  0  0  0  0  0  0  0  0  0  0
    2.4680    1.0887   -0.6473 C   0  0  0  0  0  0  0  0  0  0  0  0
    5.0278    0.3455    0.2009 C   0  0  0  0  0  0  0  0  0  0  0  0
    3.4514    0.9145   -1.5487 C   0  0  0  0  0  0  0  0  0  0  0  0
    4.7976    0.5539   -1.1113 C   0  0  0  0  0  0  0  0  0  0  0  0
    5.8543    0.4270   -2.1648 C   0  0  0  0  0  0  0  0  0  0  0  0
    2.2325    2.2858    2.1483 H   0  0  0  0  0  0  0  0  0  0  0  0
    0.6060   -1.7323    1.4990 H   0  0  0  0  0  0  0  0  0  0  0  0
   -1.3370    1.9468    2.5477 H   0  0  0  0  0  0  0  0  0  0  0  0
   -1.4749   -2.5081    0.4277 H   0  0  0  0  0  0  0  0  0  0  0  0
   -3.3730    1.2164    1.3494 H   0  0  0  0  0  0  0  0  0  0  0  0
   -2.5507   -0.2976   -2.1139 H   0  0  0  0  0  0  0  0  0  0  0  0
   -4.6450    0.2394   -3.3307 H   0  0  0  0  0  0  0  0  0  0  0  0
   -6.8433   -2.0326   -0.4128 H   0  0  0  0  0  0  0  0  0  0  0  0
    4.1334    0.1631    2.1877 H   0  0  0  0  0  0  0  0  0  0  0  0
    1.4605    1.3436   -0.9582 H   0  0  0  0  0  0  0  0  0  0  0  0
    6.0081    0.0685    0.5759 H   0  0  0  0  0  0  0  0  0  0  0  0
    3.2593    1.0283   -2.6107 H   0  0  0  0  0  0  0  0  0  0  0  0
    6.8111    0.1003   -1.7435 H   0  0  0  0  0  0  0  0  0  0  0  0
    6.0189    1.3894   -2.6610 H   0  0  0  0  0  0  0  0  0  0  0  0
    5.5595   -0.3072   -2.9215 H   0  0  0  0  0  0  0  0  0  0  0  0
  1  2  1  0
  3  1  1  0
  3  4  1  0
  3  5  2  0
  4  6  2  0
  7  4  1  0
  6  8  1  0
  9  7  2  0
  8 10  2  0
 10  9  1  0
 10 11  1  0
 11 12  2  0
 13 11  1  0
 12 14  1  0
 15 13  2  0
 13 16  1  0
 14 17  2  0
 17 15  1  0
 17 18  1  0
  2 19  2  0
 20  2  1  0
 19 21  1  0
 22 20  2  0
 21 23  2  0
 23 22  1  0
 23 24  1  0
  1 25  1  0
  6 26  1  0
  7 27  1  0
  8 28  1  0
  9 29  1  0
 12 30  1  0
 14 31  1  0
 15 32  1  0
 19 33  1  0
 20 34  1  0
 21 35  1  0
 22 36  1  0
 24 37  1  0
 24 38  1  0
 24 39  1  0
M  END
$$$$

     RDKit          3D

 36 38  0  0  0  0  0  0  0  0999 V2000
   -2.3779    1.2557   -0.6570 N   0  0  0  0  0  0  0  0  0  0  0  0
   -3.4754    0.5943   -0.1403 C   0  0  0  0  0  0  0  0  0  0  0  0
   -1.7825    0.8074   -1.8211 C   0  0  0  0  0  0  0  0  0  0  0  0
   -0.3659    0.4001   -1.6416 C   0  0  0  0  0  0  0  0  0  0  0  0
   -2.3174    0.7851   -2.9233 O   0  0  0  0  0  0  0  0  0  0  0  0
   -0.1014   -0.8609   -1.2543 C   0  0  0  0  0  0  0  0  0  0  0  0
    0.7030    1.3833   -1.6784 C   0  0  0  0  0  0  0  0  0  0  0  0
    1.1579   -1.1511   -0.5847 C   0  0  0  0  0  0  0  0  0  0  0  0
    1.8849    1.0979   -1.1029 C   0  0  0  0  0  0  0  0  0  0  0  0
    2.1042   -0.1940   -0.4384 C   0  0  0  0  0  0  0  0  0  0  0  0
    3.2659   -0.4511    0.4167 C   0  0  0  0  0  0  0  0  0  0  0  0
    4.3676   -0.9939   -0.1541 C   0  0  0  0  0  0  0  0  0  0  0  0
    3.3545   -0.0609    1.8362 C   0  0  0  0  0  0  0  0  0  0  0  0
    5.6334   -1.0530    0.5576 C   0  0  0  0  0  0  0  0  0  0  0  0
    4.5186   -0.1513    2.5058 C   0  0  0  0  0  0  0  0  0  0  0  0
    1.9451    0.5148    2.6539 Cl  0  0  0  0  0  0  0  0  0  0  0  0
    5.7033   -0.6473    1.8360 C   0  0  0  0  0  0  0  0  0  0  0  0
    7.1806   -0.7099    2.7138 Cl  0  0  0  0  0  0  0  0  0  0  0  0
   -4.6918    0.7559   -0.7006 C   0  0  0  0  0  0  0  0  0  0  0  0
   -3.3799   -0.0584    1.1705 C   0  0  0  0  0  0  0  0  0  0  0  0
   -5.8944    0.3616    0.0114 C   0  0  0  0  0  0  0  0  0  0  0  0
   -4.4967   -0.4432    1.8172 C   0  0  0  0  0  0  0  0  0  0  0  0
   -1.8345   -0.3274    1.8941 Cl  0  0  0  0  0  0  0  0  0  0  0  0
   -5.8014   -0.2178    1.2204 C   0  0  0  0  0  0  0  0  0  0  0  0
   -1.7262    1.5848    0.0503 H   0  0  0  0  0  0  0  0  0  0  0  0
   -0.7669   -1.6847   -1.4923 H   0  0  0  0  0  0  0  0  0  0  0  0
    0.5295    2.3232   -2.1917 H   0  0  0  0  0  0  0  0  0  0  0  0
    1.3204   -2.1728   -0.2541 H   0  0  0  0  0  0  0  0  0  0  0  0
    2.7055    1.8076   -1.1267 H   0  0  0  0  0  0  0  0  0  0  0  0
    4.3437   -1.4044   -1.1608 H   0  0  0  0  0  0  0  0  0  0  0  0
    6.5002   -1.4344    0.0289 H   0  0  0  0  0  0  0  0  0  0  0  0
    4.5933    0.1317    3.5501 H   0  0  0  0  0  0  0  0  0  0  0  0
   -4.8006    1.1287   -1.7155 H   0  0  0  0  0  0  0  0  0  0  0  0
   -6.8549    0.5358   -0.4628 H   0  0  0  0  0  0  0  0  0  0  0  0
   -4.4589   -0.9239    2.7890 H   0  0  0  0  0  0  0  0  0  0  0  0
   -6.6848   -0.5271    1.7690 H   0  0  0  0  0  0  0  0  0  0  0  0
  1  2  1  0
  3  1  1  0
  3  4  1  0
  3  5  2  0
  4  6  2  0
  7  4  1  0
  6  8  1  0
  9  7  2  0
  8 10  2  0
 10  9  1  0
 10 11  1  0
 11 12  2  0
 13 11  1  0
 12 14  1  0
 15 13  2  0
 13 16  1  0
 14 17  2  0
 17 15  1  0
 17 18  1  0
  2 19  2  0
 20  2  1  0
 19 21  1  0
 22 20  2  0
 20 23  1  0
 21 24  2  0
 24 22  1  0
  1 25  1  0
  6 26  1  0
  7 27  1  0
  8 28  1  0
  9 29  1  0
 12 30  1  0
 14 31  1  0
 15 32  1  0
 19 33  1  0
 21 34  1  0
 22 35  1  0
 24 36  1  0
M  END
$$$$

     RDKit          3D

 36 38  0  0  0  0  0  0  0  0999 V2000
    2.2702   -2.2498    0.7456 N   0  0  0  0  0  0  0  0  0  0  0  0
    3.0348   -1.1084    0.8524 C   0  0  0  0  0  0  0  0  0  0  0  0
    1.7971   -2.6779   -0.4779 C   0  0  0  0  0  0  0  0  0  0  0  0
    0.5046   -2.0609   -0.8733 C   0  0  0  0  0  0  0  0  0  0  0  0
    2.3530   -3.5171   -1.1757 O   0  0  0  0  0  0  0  0  0  0  0  0
    0.5436   -0.9473   -1.6292 C   0  0  0  0  0  0  0  0  0  0  0  0
   -0.7479   -2.4747   -0.2638 C   0  0  0  0  0  0  0  0  0  0  0  0
   -0.5698   -0.0104   -1.5749 C   0  0  0  0  0  0  0  0  0  0  0  0
   -1.7768   -1.6087   -0.2218 C   0  0  0  0  0  0  0  0  0  0  0  0
   -1.6407   -0.2583   -0.7848 C   0  0  0  0  0  0  0  0  0  0  0  0
   -2.5817    0.8230   -0.4847 C   0  0  0  0  0  0  0  0  0  0  0  0
   -2.3658    1.5723    0.6220 C   0  0  0  0  0  0  0  0  0  0  0  0
   -3.8581    1.0273   -1.1918 C   0  0  0  0  0  0  0  0  0  0  0  0
   -3.4769    2.2092    1.3106 C   0  0  0  0  0  0  0  0  0  0  0  0
   -4.8632    1.7078   -0.6087 C   0  0  0  0  0  0  0  0  0  0  0  0
   -4.0526    0.4062   -2.7920 Cl  0  0  0  0  0  0  0  0  0  0  0  0
   -4.6796    2.2727    0.7147 C   0  0  0  0  0  0  0  0  0  0  0  0
   -6.0182    3.0349    1.4797 Cl  0  0  0  0  0  0  0  0  0  0  0  0
    4.2694   -1.0487    0.3150 C   0  0  0  0  0  0  0  0  0  0  0  0
    2.4375    0.1167    1.3910 C   0  0  0  0  0  0  0  0  0  0  0  0
    4.8357    0.2409   -0.0481 C   0  0  0  0  0  0  0  0  0  0  0  0
    3.0044    1.3101    1.1310 C   0  0  0  0  0  0  0  0  0  0  0  0
    1.0329    0.0160    2.3905 Cl  0  0  0  0  0  0  0  0  0  0  0  0
    4.2229    1.3730    0.3417 C   0  0  0  0  0  0  0  0  0  0  0  0
    4.8630    2.9187   -0.0582 Cl  0  0  0  0  0  0  0  0  0  0  0  0
    1.6385   -2.4163    1.5216 H   0  0  0  0  0  0  0  0  0  0  0  0
    1.2847   -0.8246   -2.4133 H   0  0  0  0  0  0  0  0  0  0  0  0
   -0.8354   -3.4858    0.1190 H   0  0  0  0  0  0  0  0  0  0  0  0
   -0.5884    0.7815   -2.3191 H   0  0  0  0  0  0  0  0  0  0  0  0
   -2.7334   -1.8923    0.2064 H   0  0  0  0  0  0  0  0  0  0  0  0
   -1.3676    1.7318    1.0189 H   0  0  0  0  0  0  0  0  0  0  0  0
   -3.2976    2.6335    2.2928 H   0  0  0  0  0  0  0  0  0  0  0  0
   -5.8082    1.8687   -1.1156 H   0  0  0  0  0  0  0  0  0  0  0  0
    4.8281   -1.9479    0.0714 H   0  0  0  0  0  0  0  0  0  0  0  0
    5.7511    0.2513   -0.6312 H   0  0  0  0  0  0  0  0  0  0  0  0
    2.5903    2.2335    1.5208 H   0  0  0  0  0  0  0  0  0  0  0  0
  1  2  1  0
  3  1  1  0
  3  4  1  0
  3  5  2  0
  4  6  2  0
  7  4  1  0
  6  8  1  0
  9  7  2  0
  8 10  2  0
 10  9  1  0
 10 11  1  0
 11 12  2  0
 13 11  1  0
 12 14  1  0
 15 13  2  0
 13 16  1  0
 14 17  2  0
 17 15  1  0
 17 18  1  0
  2 19  2  0
 20  2  1  0
 19 21  1  0
 22 20  2  0
 20 23  1  0
 21 24  2  0
 24 22  1  0
 24 25  1  0
  1 26  1  0
  6 27  1  0
  7 28  1  0
  8 29  1  0
  9 30  1  0
 12 31  1  0
 14 32  1  0
 15 33  1  0
 19 34  1  0
 21 35  1  0
 22 36  1  0
M  END
$$$$

     RDKit          3D

 36 38  0  0  0  0  0  0  0  0999 V2000
    2.0850    1.8776    1.6632 N   0  0  0  0  0  0  0  0  0  0  0  0
    2.8478    1.3322    0.6568 C   0  0  0  0  0  0  0  0  0  0  0  0
    1.5476    1.0651    2.6366 C   0  0  0  0  0  0  0  0  0  0  0  0
    0.2713    0.4118    2.2469 C   0  0  0  0  0  0  0  0  0  0  0  0
    2.0526    0.9109    3.7432 O   0  0  0  0  0  0  0  0  0  0  0  0
    0.3266   -0.8799    1.8774 C   0  0  0  0  0  0  0  0  0  0  0  0
   -0.9269    1.1846    1.9676 C   0  0  0  0  0  0  0  0  0  0  0  0
   -0.6363   -1.3885    0.9150 C   0  0  0  0  0  0  0  0  0  0  0  0
   -1.8612    0.6838    1.1390 C   0  0  0  0  0  0  0  0  0  0  0  0
   -1.6891   -0.6390    0.5225 C   0  0  0  0  0  0  0  0  0  0  0  0
   -2.5938   -1.1508   -0.5101 C   0  0  0  0  0  0  0  0  0  0  0  0
   -3.6671   -1.8797   -0.1170 C   0  0  0  0  0  0  0  0  0  0  0  0
   -2.5107   -0.7928   -1.9364 C   0  0  0  0  0  0  0  0  0  0  0  0
   -4.8466   -1.9764   -0.9591 C   0  0  0  0  0  0  0  0  0  0  0  0
   -3.5693   -0.9696   -2.7511 C   0  0  0  0  0  0  0  0  0  0  0  0
   -1.0319   -0.1610   -2.5730 Cl  0  0  0  0  0  0  0  0  0  0  0  0
   -4.7963   -1.5389   -2.2286 C   0  0  0  0  0  0  0  0  0  0  0  0
   -6.1588   -1.6577   -3.2725 Cl  0  0  0  0  0  0  0  0  0  0  0  0
    4.1298    0.9647    0.8458 C   0  0  0  0  0  0  0  0  0  0  0  0
    2.2842    1.3356   -0.6850 C   0  0  0  0  0  0  0  0  0  0  0  0
    4.9851    0.6931   -0.3011 C   0  0  0  0  0  0  0  0  0  0  0  0
    3.0652    1.0444   -1.7431 C   0  0  0  0  0  0  0  0  0  0  0  0
    4.4690    0.7265   -1.5438 C   0  0  0  0  0  0  0  0  0  0  0  0
    5.4406    0.3974   -2.9224 Cl  0  0  0  0  0  0  0  0  0  0  0  0
    2.4916    2.7136    2.0709 H   0  0  0  0  0  0  0  0  0  0  0  0
    1.0548   -1.5641    2.3034 H   0  0  0  0  0  0  0  0  0  0  0  0
   -1.0380    2.1549    2.4398 H   0  0  0  0  0  0  0  0  0  0  0  0
   -0.4817   -2.3978    0.5477 H   0  0  0  0  0  0  0  0  0  0  0  0
   -2.7657    1.2384    0.9136 H   0  0  0  0  0  0  0  0  0  0  0  0
   -3.6712   -2.4248    0.8212 H   0  0  0  0  0  0  0  0  0  0  0  0
   -5.7446   -2.4212   -0.5412 H   0  0  0  0  0  0  0  0  0  0  0  0
   -3.5198   -0.7176   -3.8037 H   0  0  0  0  0  0  0  0  0  0  0  0
    4.5374    0.7995    1.8400 H   0  0  0  0  0  0  0  0  0  0  0  0
    1.2264    1.5512   -0.8125 H   0  0  0  0  0  0  0  0  0  0  0  0
    6.0292    0.4549   -0.1168 H   0  0  0  0  0  0  0  0  0  0  0  0
    2.6646    1.0195   -2.7519 H   0  0  0  0  0  0  0  0  0  0  0  0
  1  2  1  0
  3  1  1  0
  3  4  1  0
  3  5  2  0
  4  6  2  0
  7  4  1  0
  6  8  1  0
  9  7  2  0
  8 10  2  0
 10  9  1  0
 10 11  1  0
 11 12  2  0
 13 11  1  0
 12 14  1  0
 15 13  2  0
 13 16  1  0
 14 17  2  0
 17 15  1  0
 17 18  1  0
  2 19  2  0
 20  2  1  0
 19 21  1  0
 22 20  2  0
 21 23  2  0
 23 22  1  0
 23 24  1  0
  1 25  1  0
  6 26  1  0
  7 27  1  0
  8 28  1  0
  9 29  1  0
 12 30  1  0
 14 31  1  0
 15 32  1  0
 19 33  1  0
 20 34  1  0
 21 35  1  0
 22 36  1  0
M  END
$$$$

     RDKit          3D

 37 39  0  0  0  0  0  0  0  0999 V2000
    1.9030   -1.6208    2.3265 N   0  0  0  0  0  0  0  0  0  0  0  0
    2.8569   -0.7571    1.8302 C   0  0  0  0  0  0  0  0  0  0  0  0
    1.3737   -2.6098    1.5220 C   0  0  0  0  0  0  0  0  0  0  0  0
    0.2521   -2.1537    0.6589 C   0  0  0  0  0  0  0  0  0  0  0  0
    1.7584   -3.7730    1.5128 O   0  0  0  0  0  0  0  0  0  0  0  0
   -0.9787   -2.0737    1.1977 C   0  0  0  0  0  0  0  0  0  0  0  0
    0.5008   -1.5905   -0.6573 C   0  0  0  0  0  0  0  0  0  0  0  0
   -1.9535   -1.1625    0.6152 C   0  0  0  0  0  0  0  0  0  0  0  0
   -0.4177   -0.7823   -1.2160 C   0  0  0  0  0  0  0  0  0  0  0  0
   -1.6716   -0.4733   -0.5155 C   0  0  0  0  0  0  0  0  0  0  0  0
   -2.5909    0.5706   -0.9750 C   0  0  0  0  0  0  0  0  0  0  0  0
   -3.5866    0.2189   -1.8223 C   0  0  0  0  0  0  0  0  0  0  0  0
   -2.5824    1.9622   -0.4906 C   0  0  0  0  0  0  0  0  0  0  0  0
   -4.7917    1.0261   -1.9231 C   0  0  0  0  0  0  0  0  0  0  0  0
   -3.6571    2.7548   -0.6661 C   0  0  0  0  0  0  0  0  0  0  0  0
   -1.1725    2.5881    0.2880 Cl  0  0  0  0  0  0  0  0  0  0  0  0
   -4.8230    2.2474   -1.3641 C   0  0  0  0  0  0  0  0  0  0  0  0
   -6.2180    3.2471   -1.4753 Cl  0  0  0  0  0  0  0  0  0  0  0  0
    4.0952   -1.1685    1.5021 C   0  0  0  0  0  0  0  0  0  0  0  0
    2.4538    0.6183    1.5525 C   0  0  0  0  0  0  0  0  0  0  0  0
    4.9373   -0.3293    0.6624 C   0  0  0  0  0  0  0  0  0  0  0  0
    3.2506    1.4219    0.8165 C   0  0  0  0  0  0  0  0  0  0  0  0
    1.2362    0.9874    2.0856 O   0  0  0  0  0  0  0  0  0  0  0  0
    6.5685   -1.0240    0.0885 Br  0  0  0  0  0  0  0  0  0  0  0  0
    4.5286    0.9121    0.3333 C   0  0  0  0  0  0  0  0  0  0  0  0
    2.8051    3.1835    0.3940 Br  0  0  0  0  0  0  0  0  0  0  0  0
    1.1976   -1.1326    2.8737 H   0  0  0  0  0  0  0  0  0  0  0  0
   -1.3161   -2.7816    1.9486 H   0  0  0  0  0  0  0  0  0  0  0  0
    1.4275   -1.8412   -1.1629 H   0  0  0  0  0  0  0  0  0  0  0  0
   -2.9487   -1.1567    1.0509 H   0  0  0  0  0  0  0  0  0  0  0  0
   -0.2564   -0.3495   -2.1981 H   0  0  0  0  0  0  0  0  0  0  0  0
   -3.5181   -0.6666   -2.4486 H   0  0  0  0  0  0  0  0  0  0  0  0
   -5.6389    0.6197   -2.4660 H   0  0  0  0  0  0  0  0  0  0  0  0
   -3.6674    3.7821   -0.3187 H   0  0  0  0  0  0  0  0  0  0  0  0
    4.4699   -2.1300    1.8401 H   0  0  0  0  0  0  0  0  0  0  0  0
    1.0305    1.8802    1.7470 H   0  0  0  0  0  0  0  0  0  0  0  0
    5.1437    1.5562   -0.2874 H   0  0  0  0  0  0  0  0  0  0  0  0
  1  2  1  0
  3  1  1  0
  3  4  1  0
  3  5  2  0
  4  6  2  0
  7  4  1  0
  6  8  1  0
  9  7  2  0
  8 10  2  0
 10  9  1  0
 10 11  1  0
 11 12  2  0
 13 11  1  0
 12 14  1  0
 15 13  2  0
 13 16  1  0
 14 17  2  0
 17 15  1  0
 17 18  1  0
  2 19  2  0
 20  2  1  0
 19 21  1  0
 22 20  2  0
 20 23  1  0
 21 24  1  0
 21 25  2  0
 25 22  1  0
 22 26  1  0
  1 27  1  0
  6 28  1  0
  7 29  1  0
  8 30  1  0
  9 31  1  0
 12 32  1  0
 14 33  1  0
 15 34  1  0
 19 35  1  0
 23 36  1  0
 25 37  1  0
M  END
$$$$

     RDKit          3D

 36 38  0  0  0  0  0  0  0  0999 V2000
   -2.1349   -2.1559   -0.0920 N   0  0  0  0  0  0  0  0  0  0  0  0
   -3.0037   -1.1488    0.2592 C   0  0  0  0  0  0  0  0  0  0  0  0
   -1.6043   -2.1928   -1.3625 C   0  0  0  0  0  0  0  0  0  0  0  0
   -0.3031   -1.4895   -1.4845 C   0  0  0  0  0  0  0  0  0  0  0  0
   -2.1112   -2.8064   -2.2942 O   0  0  0  0  0  0  0  0  0  0  0  0
   -0.3060   -0.1931   -1.8470 C   0  0  0  0  0  0  0  0  0  0  0  0
    0.9325   -2.1125   -1.0396 C   0  0  0  0  0  0  0  0  0  0  0  0
    0.8561    0.6334   -1.5556 C   0  0  0  0  0  0  0  0  0  0  0  0
    2.0027   -1.3426   -0.7695 C   0  0  0  0  0  0  0  0  0  0  0  0
    1.9279    0.1178   -0.9109 C   0  0  0  0  0  0  0  0  0  0  0  0
    2.8953    1.0214   -0.2826 C   0  0  0  0  0  0  0  0  0  0  0  0
    4.0039    1.3562   -0.9829 C   0  0  0  0  0  0  0  0  0  0  0  0
    2.8232    1.4686    1.1214 C   0  0  0  0  0  0  0  0  0  0  0  0
    5.1938    1.8480   -0.3085 C   0  0  0  0  0  0  0  0  0  0  0  0
    3.9025    1.9957    1.7311 C   0  0  0  0  0  0  0  0  0  0  0  0
    1.3346    1.3240    1.9896 Cl  0  0  0  0  0  0  0  0  0  0  0  0
    5.1425    2.1543    0.9988 C   0  0  0  0  0  0  0  0  0  0  0  0
    6.5218    2.7556    1.8308 Cl  0  0  0  0  0  0  0  0  0  0  0  0
   -2.6412   -0.2071    1.1498 C   0  0  0  0  0  0  0  0  0  0  0  0
   -4.3990   -1.2647   -0.1397 C   0  0  0  0  0  0  0  0  0  0  0  0
   -3.6557    0.5965    1.8131 C   0  0  0  0  0  0  0  0  0  0  0  0
   -5.3358   -0.4978    0.4492 C   0  0  0  0  0  0  0  0  0  0  0  0
   -4.9536    0.4598    1.4791 C   0  0  0  0  0  0  0  0  0  0  0  0
   -6.2999    1.4696    2.2779 Br  0  0  0  0  0  0  0  0  0  0  0  0
   -2.4361   -3.0747    0.2105 H   0  0  0  0  0  0  0  0  0  0  0  0
   -1.1315    0.2469   -2.3996 H   0  0  0  0  0  0  0  0  0  0  0  0
    0.9704   -3.1939   -0.9545 H   0  0  0  0  0  0  0  0  0  0  0  0
    0.8285    1.6711   -1.8797 H   0  0  0  0  0  0  0  0  0  0  0  0
    2.9436   -1.7817   -0.4510 H   0  0  0  0  0  0  0  0  0  0  0  0
    4.0449    1.2663   -2.0651 H   0  0  0  0  0  0  0  0  0  0  0  0
    6.1027    1.9670   -0.8906 H   0  0  0  0  0  0  0  0  0  0  0  0
    3.8611    2.3298    2.7617 H   0  0  0  0  0  0  0  0  0  0  0  0
   -1.5964    0.0089    1.3595 H   0  0  0  0  0  0  0  0  0  0  0  0
   -4.6673   -1.9645   -0.9242 H   0  0  0  0  0  0  0  0  0  0  0  0
   -3.3311    1.3067    2.5669 H   0  0  0  0  0  0  0  0  0  0  0  0
   -6.3773   -0.5716    0.1544 H   0  0  0  0  0  0  0  0  0  0  0  0
  1  2  1  0
  3  1  1  0
  3  4  1  0
  3  5  2  0
  4  6  2  0
  7  4  1  0
  6  8  1  0
  9  7  2  0
  8 10  2  0
 10  9  1  0
 10 11  1  0
 11 12  2  0
 13 11  1  0
 12 14  1  0
 15 13  2  0
 13 16  1  0
 14 17  2  0
 17 15  1  0
 17 18  1  0
  2 19  2  0
 20  2  1  0
 19 21  1  0
 22 20  2  0
 21 23  2  0
 23 22  1  0
 23 24  1  0
  1 25  1  0
  6 26  1  0
  7 27  1  0
  8 28  1  0
  9 29  1  0
 12 30  1  0
 14 31  1  0
 15 32  1  0
 19 33  1  0
 20 34  1  0
 21 35  1  0
 22 36  1  0
M  END
$$$$

     RDKit          3D

 37 39  0  0  0  0  0  0  0  0999 V2000
   -2.3302    0.1612   -1.2102 N   0  0  0  0  0  0  0  0  0  0  0  0
   -3.4162    0.0217   -0.3703 C   0  0  0  0  0  0  0  0  0  0  0  0
   -1.6482    1.3550   -1.2254 C   0  0  0  0  0  0  0  0  0  0  0  0
   -0.2537    1.2539   -0.7397 C   0  0  0  0  0  0  0  0  0  0  0  0
   -2.1382    2.3933   -1.6545 O   0  0  0  0  0  0  0  0  0  0  0  0
   -0.0158    1.3274    0.5840 C   0  0  0  0  0  0  0  0  0  0  0  0
    0.8418    1.0135   -1.6623 C   0  0  0  0  0  0  0  0  0  0  0  0
    1.2927    0.9453    1.0989 C   0  0  0  0  0  0  0  0  0  0  0  0
    2.0511    0.6721   -1.1821 C   0  0  0  0  0  0  0  0  0  0  0  0
    2.2737    0.5317    0.2630 C   0  0  0  0  0  0  0  0  0  0  0  0
    3.4847   -0.0756    0.8172 C   0  0  0  0  0  0  0  0  0  0  0  0
    3.5379   -1.4249    0.9150 C   0  0  0  0  0  0  0  0  0  0  0  0
    4.7368    0.6591    1.0679 C   0  0  0  0  0  0  0  0  0  0  0  0
    4.8106   -2.1219    0.8105 C   0  0  0  0  0  0  0  0  0  0  0  0
    5.9186    0.0133    1.0819 C   0  0  0  0  0  0  0  0  0  0  0  0
    4.6801    2.3557    1.3781 Cl  0  0  0  0  0  0  0  0  0  0  0  0
    5.9571   -1.4241    0.8867 C   0  0  0  0  0  0  0  0  0  0  0  0
    7.4864   -2.2038    0.7883 Cl  0  0  0  0  0  0  0  0  0  0  0  0
   -3.3727   -0.8790    0.6307 C   0  0  0  0  0  0  0  0  0  0  0  0
   -4.7276    0.4695   -0.8518 C   0  0  0  0  0  0  0  0  0  0  0  0
   -4.5604   -1.6496    0.9625 C   0  0  0  0  0  0  0  0  0  0  0  0
   -5.8415   -0.1810   -0.4762 C   0  0  0  0  0  0  0  0  0  0  0  0
   -4.7864    1.5727   -1.6746 O   0  0  0  0  0  0  0  0  0  0  0  0
   -5.7499   -1.3112    0.4320 C   0  0  0  0  0  0  0  0  0  0  0  0
   -2.5239   -0.1801   -2.1470 H   0  0  0  0  0  0  0  0  0  0  0  0
   -0.7165    1.8032    1.2639 H   0  0  0  0  0  0  0  0  0  0  0  0
    0.6677    1.1402   -2.7249 H   0  0  0  0  0  0  0  0  0  0  0  0
    1.4896    1.1411    2.1501 H   0  0  0  0  0  0  0  0  0  0  0  0
    2.8922    0.5058   -1.8490 H   0  0  0  0  0  0  0  0  0  0  0  0
    2.6433   -2.0231    1.0617 H   0  0  0  0  0  0  0  0  0  0  0  0
    4.7984   -3.2000    0.6812 H   0  0  0  0  0  0  0  0  0  0  0  0
    6.8494    0.5374    1.2673 H   0  0  0  0  0  0  0  0  0  0  0  0
   -2.4808   -1.0199    1.2335 H   0  0  0  0  0  0  0  0  0  0  0  0
   -4.4631   -2.4803    1.6532 H   0  0  0  0  0  0  0  0  0  0  0  0
   -6.8188    0.1388   -0.8180 H   0  0  0  0  0  0  0  0  0  0  0  0
   -3.9124    2.0193   -1.6642 H   0  0  0  0  0  0  0  0  0  0  0  0
   -6.6561   -1.8568    0.6718 H   0  0  0  0  0  0  0  0  0  0  0  0
  1  2  1  0
  3  1  1  0
  3  4  1  0
  3  5  2  0
  4  6  2  0
  7  4  1  0
  6  8  1  0
  9  7  2  0
  8 10  2  0
 10  9  1  0
 10 11  1  0
 11 12  2  0
 13 11  1  0
 12 14  1  0
 15 13  2  0
 13 16  1  0
 14 17  2  0
 17 15  1  0
 17 18  1  0
  2 19  2  0
 20  2  1  0
 19 21  1  0
 22 20  2  0
 20 23  1  0
 21 24  2  0
 24 22  1  0
  1 25  1  0
  6 26  1  0
  7 27  1  0
  8 28  1  0
  9 29  1  0
 12 30  1  0
 14 31  1  0
 15 32  1  0
 19 33  1  0
 21 34  1  0
 22 35  1  0
 23 36  1  0
 24 37  1  0
M  END
$$$$

     RDKit          3D

 40 42  0  0  0  0  0  0  0  0999 V2000
    1.5619   -0.9036   -2.6925 N   0  0  0  0  0  0  0  0  0  0  0  0
    2.4122   -0.1434   -1.9186 C   0  0  0  0  0  0  0  0  0  0  0  0
    1.1336   -2.1367   -2.2431 C   0  0  0  0  0  0  0  0  0  0  0  0
   -0.0315   -2.0750   -1.3191 C   0  0  0  0  0  0  0  0  0  0  0  0
    1.6174   -3.2070   -2.5941 O   0  0  0  0  0  0  0  0  0  0  0  0
    0.2052   -2.0588    0.0058 C   0  0  0  0  0  0  0  0  0  0  0  0
   -1.3715   -1.8096   -1.8163 C   0  0  0  0  0  0  0  0  0  0  0  0
   -0.8093   -1.5347    0.9089 C   0  0  0  0  0  0  0  0  0  0  0  0
   -2.3019   -1.3152   -0.9798 C   0  0  0  0  0  0  0  0  0  0  0  0
   -1.9790   -1.0503    0.4288 C   0  0  0  0  0  0  0  0  0  0  0  0
   -2.8433   -0.2519    1.3009 C   0  0  0  0  0  0  0  0  0  0  0  0
   -3.8896   -0.8709    1.8968 C   0  0  0  0  0  0  0  0  0  0  0  0
   -2.7992    1.2186    1.3952 C   0  0  0  0  0  0  0  0  0  0  0  0
   -5.1120   -0.1364    2.1842 C   0  0  0  0  0  0  0  0  0  0  0  0
   -3.8903    1.9118    1.7733 C   0  0  0  0  0  0  0  0  0  0  0  0
   -1.3315    2.0568    1.0387 Cl  0  0  0  0  0  0  0  0  0  0  0  0
   -5.1074    1.2058    2.1271 C   0  0  0  0  0  0  0  0  0  0  0  0
   -6.5183    2.1219    2.4818 Cl  0  0  0  0  0  0  0  0  0  0  0  0
    3.7004   -0.4756   -1.7241 C   0  0  0  0  0  0  0  0  0  0  0  0
    1.8563    1.0135   -1.2271 C   0  0  0  0  0  0  0  0  0  0  0  0
    4.4604    0.1725   -0.6669 C   0  0  0  0  0  0  0  0  0  0  0  0
    2.5716    1.6451   -0.2778 C   0  0  0  0  0  0  0  0  0  0  0  0
    0.5883    1.3832   -1.6158 O   0  0  0  0  0  0  0  0  0  0  0  0
    3.9259    1.1918    0.0380 C   0  0  0  0  0  0  0  0  0  0  0  0
    4.6588    1.9073    1.1310 C   0  0  0  0  0  0  0  0  0  0  0  0
    0.8100   -0.3376   -3.0781 H   0  0  0  0  0  0  0  0  0  0  0  0
    1.0971   -2.5093    0.4301 H   0  0  0  0  0  0  0  0  0  0  0  0
   -1.5967   -2.0312   -2.8540 H   0  0  0  0  0  0  0  0  0  0  0  0
   -0.6261   -1.6388    1.9741 H   0  0  0  0  0  0  0  0  0  0  0  0
   -3.3119   -1.1170   -1.3223 H   0  0  0  0  0  0  0  0  0  0  0  0
   -3.8466   -1.9181    2.1823 H   0  0  0  0  0  0  0  0  0  0  0  0
   -5.9982   -0.6984    2.4564 H   0  0  0  0  0  0  0  0  0  0  0  0
   -3.8812    2.9947    1.8441 H   0  0  0  0  0  0  0  0  0  0  0  0
    4.1806   -1.2538   -2.3081 H   0  0  0  0  0  0  0  0  0  0  0  0
    5.4651   -0.1949   -0.4773 H   0  0  0  0  0  0  0  0  0  0  0  0
    2.1790    2.5058    0.2513 H   0  0  0  0  0  0  0  0  0  0  0  0
    0.2708    2.0540   -0.9857 H   0  0  0  0  0  0  0  0  0  0  0  0
    4.1384    1.7874    2.0878 H   0  0  0  0  0  0  0  0  0  0  0  0
    4.7362    2.9774    0.9080 H   0  0  0  0  0  0  0  0  0  0  0  0
    5.6765    1.5207    1.2562 H   0  0  0  0  0  0  0  0  0  0  0  0
  1  2  1  0
  3  1  1  0
  3  4  1  0
  3  5  2  0
  4  6  2  0
  7  4  1  0
  6  8  1  0
  9  7  2  0
  8 10  2  0
 10  9  1  0
 10 11  1  0
 11 12  2  0
 13 11  1  0
 12 14  1  0
 15 13  2  0
 13 16  1  0
 14 17  2  0
 17 15  1  0
 17 18  1  0
  2 19  2  0
 20  2  1  0
 19 21  1  0
 22 20  2  0
 20 23  1  0
 21 24  2  0
 24 22  1  0
 24 25  1  0
  1 26  1  0
  6 27  1  0
  7 28  1  0
  8 29  1  0
  9 30  1  0
 12 31  1  0
 14 32  1  0
 15 33  1  0
 19 34  1  0
 21 35  1  0
 22 36  1  0
 23 37  1  0
 25 38  1  0
 25 39  1  0
 25 40  1  0
M  END
$$$$

     RDKit          3D

 36 38  0  0  0  0  0  0  0  0999 V2000
    2.2898    1.1766   -1.7400 N   0  0  0  0  0  0  0  0  0  0  0  0
    2.9773    0.1003   -1.2266 C   0  0  0  0  0  0  0  0  0  0  0  0
    2.0296    2.2778   -0.9503 C   0  0  0  0  0  0  0  0  0  0  0  0
    0.7043    2.2336   -0.2805 C   0  0  0  0  0  0  0  0  0  0  0  0
    2.7819    3.2368   -0.8281 O   0  0  0  0  0  0  0  0  0  0  0  0
    0.6326    1.6615    0.9365 C   0  0  0  0  0  0  0  0  0  0  0  0
   -0.5189    2.5074   -1.0183 C   0  0  0  0  0  0  0  0  0  0  0  0
   -0.6152    1.0364    1.3526 C   0  0  0  0  0  0  0  0  0  0  0  0
   -1.6616    1.9067   -0.6385 C   0  0  0  0  0  0  0  0  0  0  0  0
   -1.6671    0.9820    0.5028 C   0  0  0  0  0  0  0  0  0  0  0  0
   -2.6846   -0.0561    0.6785 C   0  0  0  0  0  0  0  0  0  0  0  0
   -2.5040   -1.2411    0.0483 C   0  0  0  0  0  0  0  0  0  0  0  0
   -3.9719    0.1530    1.3643 C   0  0  0  0  0  0  0  0  0  0  0  0
   -3.6315   -2.1143   -0.2334 C   0  0  0  0  0  0  0  0  0  0  0  0
   -4.9973   -0.6995    1.1768 C   0  0  0  0  0  0  0  0  0  0  0  0
   -4.1590    1.4971    2.4344 Cl  0  0  0  0  0  0  0  0  0  0  0  0
   -4.8310   -1.8513    0.3116 C   0  0  0  0  0  0  0  0  0  0  0  0
   -6.1874   -2.8680    0.0211 Cl  0  0  0  0  0  0  0  0  0  0  0  0
    4.3098    0.1354   -1.0321 C   0  0  0  0  0  0  0  0  0  0  0  0
    2.2541   -1.1387   -0.9739 C   0  0  0  0  0  0  0  0  0  0  0  0
    4.9968   -1.0239   -0.4826 C   0  0  0  0  0  0  0  0  0  0  0  0
    2.8880   -2.2190   -0.4899 C   0  0  0  0  0  0  0  0  0  0  0  0
    0.9343   -1.1888   -1.2512 F   0  0  0  0  0  0  0  0  0  0  0  0
    4.3146   -2.1536   -0.2198 C   0  0  0  0  0  0  0  0  0  0  0  0
    1.5386    0.9312   -2.3758 H   0  0  0  0  0  0  0  0  0  0  0  0
    1.4098    1.8141    1.6790 H   0  0  0  0  0  0  0  0  0  0  0  0
   -0.4878    3.2165   -1.8384 H   0  0  0  0  0  0  0  0  0  0  0  0
   -0.7206    0.7747    2.4016 H   0  0  0  0  0  0  0  0  0  0  0  0
   -2.6005    2.1042   -1.1457 H   0  0  0  0  0  0  0  0  0  0  0  0
   -1.5185   -1.5752   -0.2651 H   0  0  0  0  0  0  0  0  0  0  0  0
   -3.4672   -2.9732   -0.8755 H   0  0  0  0  0  0  0  0  0  0  0  0
   -5.9499   -0.5588    1.6760 H   0  0  0  0  0  0  0  0  0  0  0  0
    4.8875    1.0356   -1.2205 H   0  0  0  0  0  0  0  0  0  0  0  0
    6.0621   -0.9462   -0.2903 H   0  0  0  0  0  0  0  0  0  0  0  0
    2.3566   -3.1442   -0.3038 H   0  0  0  0  0  0  0  0  0  0  0  0
    4.8064   -3.0293    0.1910 H   0  0  0  0  0  0  0  0  0  0  0  0
  1  2  1  0
  3  1  1  0
  3  4  1  0
  3  5  2  0
  4  6  2  0
  7  4  1  0
  6  8  1  0
  9  7  2  0
  8 10  2  0
 10  9  1  0
 10 11  1  0
 11 12  2  0
 13 11  1  0
 12 14  1  0
 15 13  2  0
 13 16  1  0
 14 17  2  0
 17 15  1  0
 17 18  1  0
  2 19  2  0
 20  2  1  0
 19 21  1  0
 22 20  2  0
 20 23  1  0
 21 24  2  0
 24 22  1  0
  1 25  1  0
  6 26  1  0
  7 27  1  0
  8 28  1  0
  9 29  1  0
 12 30  1  0
 14 31  1  0
 15 32  1  0
 19 33  1  0
 21 34  1  0
 22 35  1  0
 24 36  1  0
M  END
$$$$

     RDKit          3D

 36 38  0  0  0  0  0  0  0  0999 V2000
    2.0461    0.0266   -1.6533 N   0  0  0  0  0  0  0  0  0  0  0  0
    3.0797   -0.2745   -0.8030 C   0  0  0  0  0  0  0  0  0  0  0  0
    1.7404    1.3402   -1.9468 C   0  0  0  0  0  0  0  0  0  0  0  0
    0.3892    1.7467   -1.4805 C   0  0  0  0  0  0  0  0  0  0  0  0
    2.4593    2.1101   -2.5719 O   0  0  0  0  0  0  0  0  0  0  0  0
    0.2431    2.0880   -0.1863 C   0  0  0  0  0  0  0  0  0  0  0  0
   -0.7904    1.4275   -2.2708 C   0  0  0  0  0  0  0  0  0  0  0  0
   -1.0049    1.7617    0.4914 C   0  0  0  0  0  0  0  0  0  0  0  0
   -1.9376    1.1211   -1.6374 C   0  0  0  0  0  0  0  0  0  0  0  0
   -1.9818    1.0967   -0.1688 C   0  0  0  0  0  0  0  0  0  0  0  0
   -2.8911    0.2249    0.5766 C   0  0  0  0  0  0  0  0  0  0  0  0
   -4.0772    0.7371    0.9812 C   0  0  0  0  0  0  0  0  0  0  0  0
   -2.6889   -1.2247    0.7508 C   0  0  0  0  0  0  0  0  0  0  0  0
   -5.2183   -0.1329    1.2181 C   0  0  0  0  0  0  0  0  0  0  0  0
   -3.7227   -2.0289    1.0649 C   0  0  0  0  0  0  0  0  0  0  0  0
   -1.1072   -1.8956    0.5588 Cl  0  0  0  0  0  0  0  0  0  0  0  0
   -5.0444   -1.4644    1.2587 C   0  0  0  0  0  0  0  0  0  0  0  0
   -6.3609   -2.5311    1.5542 Cl  0  0  0  0  0  0  0  0  0  0  0  0
    4.3297   -0.4602   -1.2717 C   0  0  0  0  0  0  0  0  0  0  0  0
    2.7645   -0.6164    0.5797 C   0  0  0  0  0  0  0  0  0  0  0  0
    5.3398   -1.0788   -0.4277 C   0  0  0  0  0  0  0  0  0  0  0  0
    3.7078   -1.1683    1.3662 C   0  0  0  0  0  0  0  0  0  0  0  0
    5.0330   -1.4106    0.8359 C   0  0  0  0  0  0  0  0  0  0  0  0
    5.9539   -1.9691    1.6456 F   0  0  0  0  0  0  0  0  0  0  0  0
    1.2634   -0.6183   -1.6353 H   0  0  0  0  0  0  0  0  0  0  0  0
    0.9532    2.7438    0.3086 H   0  0  0  0  0  0  0  0  0  0  0  0
   -0.7211    1.4735   -3.3526 H   0  0  0  0  0  0  0  0  0  0  0  0
   -1.1722    2.1892    1.4758 H   0  0  0  0  0  0  0  0  0  0  0  0
   -2.8466    0.8982   -2.1870 H   0  0  0  0  0  0  0  0  0  0  0  0
   -4.2159    1.8030    1.1415 H   0  0  0  0  0  0  0  0  0  0  0  0
   -6.1910    0.3232    1.3673 H   0  0  0  0  0  0  0  0  0  0  0  0
   -3.5913   -3.0983    1.1940 H   0  0  0  0  0  0  0  0  0  0  0  0
    4.6407   -0.0491   -2.2273 H   0  0  0  0  0  0  0  0  0  0  0  0
    1.7709   -0.4147    0.9650 H   0  0  0  0  0  0  0  0  0  0  0  0
    6.3333   -1.2436   -0.8270 H   0  0  0  0  0  0  0  0  0  0  0  0
    3.5152   -1.4323    2.3991 H   0  0  0  0  0  0  0  0  0  0  0  0
  1  2  1  0
  3  1  1  0
  3  4  1  0
  3  5  2  0
  4  6  2  0
  7  4  1  0
  6  8  1  0
  9  7  2  0
  8 10  2  0
 10  9  1  0
 10 11  1  0
 11 12  2  0
 13 11  1  0
 12 14  1  0
 15 13  2  0
 13 16  1  0
 14 17  2  0
 17 15  1  0
 17 18  1  0
  2 19  2  0
 20  2  1  0
 19 21  1  0
 22 20  2  0
 21 23  2  0
 23 22  1  0
 23 24  1  0
  1 25  1  0
  6 26  1  0
  7 27  1  0
  8 28  1  0
  9 29  1  0
 12 30  1  0
 14 31  1  0
 15 32  1  0
 19 33  1  0
 20 34  1  0
 21 35  1  0
 22 36  1  0
M  END
$$$$

     RDKit          3D

 36 38  0  0  0  0  0  0  0  0999 V2000
    2.0505   -1.3965   -1.1460 N   0  0  0  0  0  0  0  0  0  0  0  0
    3.0792   -0.6116   -0.6791 C   0  0  0  0  0  0  0  0  0  0  0  0
    1.5147   -2.3854   -0.3495 C   0  0  0  0  0  0  0  0  0  0  0  0
    0.2403   -1.9943    0.3056 C   0  0  0  0  0  0  0  0  0  0  0  0
    1.9715   -3.5201   -0.2738 O   0  0  0  0  0  0  0  0  0  0  0  0
    0.2632   -1.1508    1.3555 C   0  0  0  0  0  0  0  0  0  0  0  0
   -1.0375   -2.3447   -0.2976 C   0  0  0  0  0  0  0  0  0  0  0  0
   -0.9174   -0.3504    1.6508 C   0  0  0  0  0  0  0  0  0  0  0  0
   -2.1226   -1.5998   -0.0207 C   0  0  0  0  0  0  0  0  0  0  0  0
   -2.0153   -0.4312    0.8636 C   0  0  0  0  0  0  0  0  0  0  0  0
   -2.9314    0.7084    0.7770 C   0  0  0  0  0  0  0  0  0  0  0  0
   -2.7491    1.6060   -0.2204 C   0  0  0  0  0  0  0  0  0  0  0  0
   -4.1752    0.8388    1.5571 C   0  0  0  0  0  0  0  0  0  0  0  0
   -3.8821    2.3081   -0.7978 C   0  0  0  0  0  0  0  0  0  0  0  0
   -5.1960    1.5886    1.0977 C   0  0  0  0  0  0  0  0  0  0  0  0
   -4.3076    0.0468    3.0852 Cl  0  0  0  0  0  0  0  0  0  0  0  0
   -5.0605    2.3003   -0.1580 C   0  0  0  0  0  0  0  0  0  0  0  0
   -6.4212    3.1428   -0.7853 Cl  0  0  0  0  0  0  0  0  0  0  0  0
    2.9031    0.7125   -0.5139 C   0  0  0  0  0  0  0  0  0  0  0  0
    4.4321   -1.1499   -0.7390 C   0  0  0  0  0  0  0  0  0  0  0  0
    4.0395    1.6139   -0.5862 C   0  0  0  0  0  0  0  0  0  0  0  0
    5.4890   -0.3189   -0.7624 C   0  0  0  0  0  0  0  0  0  0  0  0
    5.2828    1.1182   -0.7137 C   0  0  0  0  0  0  0  0  0  0  0  0
    2.1981   -1.7274   -2.0920 H   0  0  0  0  0  0  0  0  0  0  0  0
    1.0872   -1.1312    2.0579 H   0  0  0  0  0  0  0  0  0  0  0  0
   -1.1001   -3.2288   -0.9298 H   0  0  0  0  0  0  0  0  0  0  0  0
   -0.9335    0.1947    2.5909 H   0  0  0  0  0  0  0  0  0  0  0  0
   -3.0964   -1.8490   -0.4281 H   0  0  0  0  0  0  0  0  0  0  0  0
   -1.7617    1.8075   -0.6330 H   0  0  0  0  0  0  0  0  0  0  0  0
   -3.7414    2.8427   -1.7304 H   0  0  0  0  0  0  0  0  0  0  0  0
   -6.1170    1.7026    1.6593 H   0  0  0  0  0  0  0  0  0  0  0  0
    1.9307    1.1318   -0.2947 H   0  0  0  0  0  0  0  0  0  0  0  0
    4.5674   -2.2265   -0.7509 H   0  0  0  0  0  0  0  0  0  0  0  0
    3.8656    2.6809   -0.5217 H   0  0  0  0  0  0  0  0  0  0  0  0
    6.5001   -0.6968   -0.8113 H   0  0  0  0  0  0  0  0  0  0  0  0
    6.1510    1.7690   -0.7652 H   0  0  0  0  0  0  0  0  0  0  0  0
  1  2  1  0
  3  1  1  0
  3  4  1  0
  3  5  2  0
  4  6  2  0
  7  4  1  0
  6  8  1  0
  9  7  2  0
  8 10  2  0
 10  9  1  0
 10 11  1  0
 11 12  2  0
 13 11  1  0
 12 14  1  0
 15 13  2  0
 13 16  1  0
 14 17  2  0
 17 15  1  0
 17 18  1  0
  2 19  2  0
 20  2  1  0
 19 21  1  0
 22 20  2  0
 21 23  2  0
 23 22  1  0
  1 24  1  0
  6 25  1  0
  7 26  1  0
  8 27  1  0
  9 28  1  0
 12 29  1  0
 14 30  1  0
 15 31  1  0
 19 32  1  0
 20 33  1  0
 21 34  1  0
 22 35  1  0
 23 36  1  0
M  END
$$$$

     RDKit          3D

 36 38  0  0  0  0  0  0  0  0999 V2000
    2.2939   -0.1624   -1.5798 N   0  0  0  0  0  0  0  0  0  0  0  0
    3.2913    0.3109   -0.7562 C   0  0  0  0  0  0  0  0  0  0  0  0
    1.9506   -1.5001   -1.5440 C   0  0  0  0  0  0  0  0  0  0  0  0
    0.5640   -1.7423   -1.0705 C   0  0  0  0  0  0  0  0  0  0  0  0
    2.6745   -2.4208   -1.9040 O   0  0  0  0  0  0  0  0  0  0  0  0
    0.3368   -1.7639    0.2557 C   0  0  0  0  0  0  0  0  0  0  0  0
   -0.5583   -1.6687   -1.9912 C   0  0  0  0  0  0  0  0  0  0  0  0
   -0.9728   -1.3742    0.7574 C   0  0  0  0  0  0  0  0  0  0  0  0
   -1.7723   -1.3278   -1.5225 C   0  0  0  0  0  0  0  0  0  0  0  0
   -1.9619   -1.0231   -0.0979 C   0  0  0  0  0  0  0  0  0  0  0  0
   -3.1011   -0.2447    0.3960 C   0  0  0  0  0  0  0  0  0  0  0  0
   -4.2059   -0.9172    0.7975 C   0  0  0  0  0  0  0  0  0  0  0  0
   -3.1676    1.2287    0.3804 C   0  0  0  0  0  0  0  0  0  0  0  0
   -5.4662   -0.2281    1.0197 C   0  0  0  0  0  0  0  0  0  0  0  0
   -4.3237    1.8698    0.6350 C   0  0  0  0  0  0  0  0  0  0  0  0
   -1.7428    2.1460    0.0331 Cl  0  0  0  0  0  0  0  0  0  0  0  0
   -5.5199    1.1118    0.9424 C   0  0  0  0  0  0  0  0  0  0  0  0
   -6.9899    1.9638    1.2104 Cl  0  0  0  0  0  0  0  0  0  0  0  0
    4.5928    0.1823   -1.0857 C   0  0  0  0  0  0  0  0  0  0  0  0
    2.9233    1.1454    0.3831 C   0  0  0  0  0  0  0  0  0  0  0  0
    5.6102    0.8942   -0.3264 C   0  0  0  0  0  0  0  0  0  0  0  0
    3.8586    1.7978    1.0911 C   0  0  0  0  0  0  0  0  0  0  0  0
    1.6199    1.2630    0.7068 F   0  0  0  0  0  0  0  0  0  0  0  0
    5.2484    1.6619    0.7149 C   0  0  0  0  0  0  0  0  0  0  0  0
    6.1720    2.3249    1.4363 F   0  0  0  0  0  0  0  0  0  0  0  0
    1.5076    0.4724   -1.6878 H   0  0  0  0  0  0  0  0  0  0  0  0
    1.0590   -2.1801    0.9504 H   0  0  0  0  0  0  0  0  0  0  0  0
   -0.3940   -1.9157   -3.0345 H   0  0  0  0  0  0  0  0  0  0  0  0
   -1.1436   -1.4586    1.8263 H   0  0  0  0  0  0  0  0  0  0  0  0
   -2.6353   -1.2791   -2.1791 H   0  0  0  0  0  0  0  0  0  0  0  0
   -4.1907   -1.9905    0.9662 H   0  0  0  0  0  0  0  0  0  0  0  0
   -6.3419   -0.8237    1.2543 H   0  0  0  0  0  0  0  0  0  0  0  0
   -4.3849    2.9526    0.6253 H   0  0  0  0  0  0  0  0  0  0  0  0
    4.9169   -0.5131   -1.8546 H   0  0  0  0  0  0  0  0  0  0  0  0
    6.6508    0.7830   -0.6085 H   0  0  0  0  0  0  0  0  0  0  0  0
    3.6025    2.4254    1.9347 H   0  0  0  0  0  0  0  0  0  0  0  0
  1  2  1  0
  3  1  1  0
  3  4  1  0
  3  5  2  0
  4  6  2  0
  7  4  1  0
  6  8  1  0
  9  7  2  0
  8 10  2  0
 10  9  1  0
 10 11  1  0
 11 12  2  0
 13 11  1  0
 12 14  1  0
 15 13  2  0
 13 16  1  0
 14 17  2  0
 17 15  1  0
 17 18  1  0
  2 19  2  0
 20  2  1  0
 19 21  1  0
 22 20  2  0
 20 23  1  0
 21 24  2  0
 24 22  1  0
 24 25  1  0
  1 26  1  0
  6 27  1  0
  7 28  1  0
  8 29  1  0
  9 30  1  0
 12 31  1  0
 14 32  1  0
 15 33  1  0
 19 34  1  0
 21 35  1  0
 22 36  1  0
M  END
$$$$

     RDKit          3D

 37 39  0  0  0  0  0  0  0  0999 V2000
    2.2783    1.7611   -1.3628 N   0  0  0  0  0  0  0  0  0  0  0  0
    3.2295    0.8730   -0.9059 C   0  0  0  0  0  0  0  0  0  0  0  0
    1.5957    2.5588   -0.4667 C   0  0  0  0  0  0  0  0  0  0  0  0
    0.2730    2.0120   -0.0680 C   0  0  0  0  0  0  0  0  0  0  0  0
    1.9968    3.6395   -0.0510 O   0  0  0  0  0  0  0  0  0  0  0  0
    0.2093    1.1934    0.9984 C   0  0  0  0  0  0  0  0  0  0  0  0
   -0.9115    2.2461   -0.8755 C   0  0  0  0  0  0  0  0  0  0  0  0
   -0.9715    0.3661    1.1965 C   0  0  0  0  0  0  0  0  0  0  0  0
   -2.0094    1.4950   -0.6747 C   0  0  0  0  0  0  0  0  0  0  0  0
   -2.0249    0.4439    0.3506 C   0  0  0  0  0  0  0  0  0  0  0  0
   -3.0927   -0.5511    0.4385 C   0  0  0  0  0  0  0  0  0  0  0  0
   -4.1731   -0.3011    1.2148 C   0  0  0  0  0  0  0  0  0  0  0  0
   -3.0570   -1.8137   -0.3120 C   0  0  0  0  0  0  0  0  0  0  0  0
   -5.2497   -1.2716    1.3347 C   0  0  0  0  0  0  0  0  0  0  0  0
   -4.0580   -2.7065   -0.2095 C   0  0  0  0  0  0  0  0  0  0  0  0
   -5.1854   -2.4213    0.6479 C   0  0  0  0  0  0  0  0  0  0  0  0
   -6.1705   -3.3357    0.7382 F   0  0  0  0  0  0  0  0  0  0  0  0
    4.3991    1.2810   -0.3782 C   0  0  0  0  0  0  0  0  0  0  0  0
    2.9620   -0.5545   -1.0510 C   0  0  0  0  0  0  0  0  0  0  0  0
    5.3189    0.3114    0.2105 C   0  0  0  0  0  0  0  0  0  0  0  0
    3.8230   -1.4578   -0.5492 C   0  0  0  0  0  0  0  0  0  0  0  0
    1.8101   -0.8812   -1.7292 O   0  0  0  0  0  0  0  0  0  0  0  0
    7.0395    0.9559    1.1494 I   0  0  0  0  0  0  0  0  0  0  0  0
    5.0310   -1.0044    0.1252 C   0  0  0  0  0  0  0  0  0  0  0  0
    1.6780    1.3400   -2.0676 H   0  0  0  0  0  0  0  0  0  0  0  0
    0.9598    1.2213    1.7821 H   0  0  0  0  0  0  0  0  0  0  0  0
   -0.8919    3.0418   -1.6126 H   0  0  0  0  0  0  0  0  0  0  0  0
   -1.0165   -0.2257    2.1065 H   0  0  0  0  0  0  0  0  0  0  0  0
   -2.9132    1.6582   -1.2535 H   0  0  0  0  0  0  0  0  0  0  0  0
   -4.2744    0.6272    1.7699 H   0  0  0  0  0  0  0  0  0  0  0  0
   -2.2012   -2.0028   -0.9520 H   0  0  0  0  0  0  0  0  0  0  0  0
   -6.0930   -1.0495    1.9775 H   0  0  0  0  0  0  0  0  0  0  0  0
   -4.0535   -3.6427   -0.7542 H   0  0  0  0  0  0  0  0  0  0  0  0
    4.6598    2.3351   -0.3574 H   0  0  0  0  0  0  0  0  0  0  0  0
    3.6642   -2.5260   -0.6369 H   0  0  0  0  0  0  0  0  0  0  0  0
    1.7358   -1.8508   -1.7414 H   0  0  0  0  0  0  0  0  0  0  0  0
    5.6838   -1.7647    0.5428 H   0  0  0  0  0  0  0  0  0  0  0  0
  1  2  1  0
  3  1  1  0
  3  4  1  0
  3  5  2  0
  4  6  2  0
  7  4  1  0
  6  8  1  0
  9  7  2  0
  8 10  2  0
 10  9  1  0
 10 11  1  0
 11 12  2  0
 13 11  1  0
 12 14  1  0
 15 13  2  0
 14 16  2  0
 16 15  1  0
 16 17  1  0
  2 18  2  0
 19  2  1  0
 18 20  1  0
 21 19  2  0
 19 22  1  0
 20 23  1  0
 20 24  2  0
 24 21  1  0
  1 25  1  0
  6 26  1  0
  7 27  1  0
  8 28  1  0
  9 29  1  0
 12 30  1  0
 13 31  1  0
 14 32  1  0
 15 33  1  0
 18 34  1  0
 21 35  1  0
 22 36  1  0
 24 37  1  0
M  END
$$$$

     RDKit          3D

 36 38  0  0  0  0  0  0  0  0999 V2000
   -2.1980   -1.4616   -1.7447 N   0  0  0  0  0  0  0  0  0  0  0  0
   -3.0564   -1.2636   -0.6839 C   0  0  0  0  0  0  0  0  0  0  0  0
   -1.7081   -0.3966   -2.4725 C   0  0  0  0  0  0  0  0  0  0  0  0
   -0.4433    0.1660   -1.9345 C   0  0  0  0  0  0  0  0  0  0  0  0
   -2.2213    0.0362   -3.4971 O   0  0  0  0  0  0  0  0  0  0  0  0
   -0.5244    1.1474   -1.0173 C   0  0  0  0  0  0  0  0  0  0  0  0
    0.8335   -0.4758   -2.1956 C   0  0  0  0  0  0  0  0  0  0  0  0
    0.5744    1.3422   -0.0845 C   0  0  0  0  0  0  0  0  0  0  0  0
    1.8658   -0.2566   -1.3621 C   0  0  0  0  0  0  0  0  0  0  0  0
    1.7206    0.6316   -0.2020 C   0  0  0  0  0  0  0  0  0  0  0  0
    2.7366    0.7271    0.8456 C   0  0  0  0  0  0  0  0  0  0  0  0
    3.7595    1.6037    0.7028 C   0  0  0  0  0  0  0  0  0  0  0  0
    2.7255   -0.1335    2.0361 C   0  0  0  0  0  0  0  0  0  0  0  0
    4.8606    1.6295    1.6525 C   0  0  0  0  0  0  0  0  0  0  0  0
    3.7321   -0.0911    2.9274 C   0  0  0  0  0  0  0  0  0  0  0  0
    4.8388    0.8120    2.7145 C   0  0  0  0  0  0  0  0  0  0  0  0
    5.8474    0.8133    3.6071 F   0  0  0  0  0  0  0  0  0  0  0  0
   -4.3085   -0.8081   -0.8888 C   0  0  0  0  0  0  0  0  0  0  0  0
   -2.5851   -1.4706    0.6932 C   0  0  0  0  0  0  0  0  0  0  0  0
   -5.0630   -0.2348    0.2109 C   0  0  0  0  0  0  0  0  0  0  0  0
   -3.3280   -1.0039    1.7173 C   0  0  0  0  0  0  0  0  0  0  0  0
   -0.9998   -2.4171    1.0036 Br  0  0  0  0  0  0  0  0  0  0  0  0
   -4.5897   -0.3282    1.4649 C   0  0  0  0  0  0  0  0  0  0  0  0
   -1.5456   -2.2275   -1.6269 H   0  0  0  0  0  0  0  0  0  0  0  0
   -1.3459    1.8581   -1.0123 H   0  0  0  0  0  0  0  0  0  0  0  0
    0.9309   -1.1073   -3.0721 H   0  0  0  0  0  0  0  0  0  0  0  0
    0.4722    2.1402    0.6437 H   0  0  0  0  0  0  0  0  0  0  0  0
    2.8352   -0.7149   -1.5360 H   0  0  0  0  0  0  0  0  0  0  0  0
    3.8018    2.3009   -0.1287 H   0  0  0  0  0  0  0  0  0  0  0  0
    1.8826   -0.8028    2.1766 H   0  0  0  0  0  0  0  0  0  0  0  0
    5.6873    2.3087    1.4864 H   0  0  0  0  0  0  0  0  0  0  0  0
    3.7422   -0.7143    3.8123 H   0  0  0  0  0  0  0  0  0  0  0  0
   -4.7581   -0.8076   -1.8770 H   0  0  0  0  0  0  0  0  0  0  0  0
   -6.0056    0.2544   -0.0075 H   0  0  0  0  0  0  0  0  0  0  0  0
   -3.0285   -1.1364    2.7516 H   0  0  0  0  0  0  0  0  0  0  0  0
   -5.1376    0.0809    2.3073 H   0  0  0  0  0  0  0  0  0  0  0  0
  1  2  1  0
  3  1  1  0
  3  4  1  0
  3  5  2  0
  4  6  2  0
  7  4  1  0
  6  8  1  0
  9  7  2  0
  8 10  2  0
 10  9  1  0
 10 11  1  0
 11 12  2  0
 13 11  1  0
 12 14  1  0
 15 13  2  0
 14 16  2  0
 16 15  1  0
 16 17  1  0
  2 18  2  0
 19  2  1  0
 18 20  1  0
 21 19  2  0
 19 22  1  0
 20 23  2  0
 23 21  1  0
  1 24  1  0
  6 25  1  0
  7 26  1  0
  8 27  1  0
  9 28  1  0
 12 29  1  0
 13 30  1  0
 14 31  1  0
 15 32  1  0
 18 33  1  0
 20 34  1  0
 21 35  1  0
 23 36  1  0
M  END
$$$$

     RDKit          3D

 39 41  0  0  0  0  0  0  0  0999 V2000
    1.4723   -0.5302   -2.4720 N   0  0  0  0  0  0  0  0  0  0  0  0
    2.4586   -0.1788   -1.5889 C   0  0  0  0  0  0  0  0  0  0  0  0
    0.8239   -1.7410   -2.3981 C   0  0  0  0  0  0  0  0  0  0  0  0
   -0.3823   -1.7183   -1.5325 C   0  0  0  0  0  0  0  0  0  0  0  0
    1.1585   -2.7460   -3.0130 O   0  0  0  0  0  0  0  0  0  0  0  0
   -1.5505   -1.3289   -2.0764 C   0  0  0  0  0  0  0  0  0  0  0  0
   -0.2870   -1.9364   -0.0995 C   0  0  0  0  0  0  0  0  0  0  0  0
   -2.6240   -0.8695   -1.2057 C   0  0  0  0  0  0  0  0  0  0  0  0
   -1.2865   -1.5233    0.7004 C   0  0  0  0  0  0  0  0  0  0  0  0
   -2.4715   -0.8630    0.1392 C   0  0  0  0  0  0  0  0  0  0  0  0
   -3.4330   -0.1368    0.9669 C   0  0  0  0  0  0  0  0  0  0  0  0
   -4.4789   -0.8025    1.5101 C   0  0  0  0  0  0  0  0  0  0  0  0
   -3.2944    1.2955    1.2644 C   0  0  0  0  0  0  0  0  0  0  0  0
   -5.4406   -0.1200    2.3609 C   0  0  0  0  0  0  0  0  0  0  0  0
   -4.1846    1.9267    2.0512 C   0  0  0  0  0  0  0  0  0  0  0  0
   -5.2914    1.1884    2.6138 C   0  0  0  0  0  0  0  0  0  0  0  0
   -6.1682    1.8447    3.3980 F   0  0  0  0  0  0  0  0  0  0  0  0
    2.2469    0.7391   -0.6276 C   0  0  0  0  0  0  0  0  0  0  0  0
    3.8185   -0.5821   -1.9048 C   0  0  0  0  0  0  0  0  0  0  0  0
    3.3692    1.4603   -0.0492 C   0  0  0  0  0  0  0  0  0  0  0  0
    4.8606    0.0458   -1.3304 C   0  0  0  0  0  0  0  0  0  0  0  0
    4.6346    1.1309   -0.3794 C   0  0  0  0  0  0  0  0  0  0  0  0
    5.8397    1.8186    0.1830 C   0  0  0  0  0  0  0  0  0  0  0  0
    0.9838    0.2218   -2.9405 H   0  0  0  0  0  0  0  0  0  0  0  0
   -1.7927   -1.5536   -3.1110 H   0  0  0  0  0  0  0  0  0  0  0  0
    0.5914   -2.4377    0.2936 H   0  0  0  0  0  0  0  0  0  0  0  0
   -3.5947   -0.6977   -1.6622 H   0  0  0  0  0  0  0  0  0  0  0  0
   -1.2459   -1.6784    1.7739 H   0  0  0  0  0  0  0  0  0  0  0  0
   -4.6357   -1.8624    1.3313 H   0  0  0  0  0  0  0  0  0  0  0  0
   -2.4547    1.8294    0.8305 H   0  0  0  0  0  0  0  0  0  0  0  0
   -6.2676   -0.6797    2.7802 H   0  0  0  0  0  0  0  0  0  0  0  0
   -4.1027    2.9818    2.2828 H   0  0  0  0  0  0  0  0  0  0  0  0
    1.2630    0.9080   -0.2032 H   0  0  0  0  0  0  0  0  0  0  0  0
    3.9691   -1.3997   -2.6031 H   0  0  0  0  0  0  0  0  0  0  0  0
    3.1500    2.2524    0.6592 H   0  0  0  0  0  0  0  0  0  0  0  0
    5.8794   -0.2515   -1.5581 H   0  0  0  0  0  0  0  0  0  0  0  0
    5.5625    2.6145    0.8826 H   0  0  0  0  0  0  0  0  0  0  0  0
    6.4319    2.2733   -0.6183 H   0  0  0  0  0  0  0  0  0  0  0  0
    6.4729    1.1064    0.7220 H   0  0  0  0  0  0  0  0  0  0  0  0
  1  2  1  0
  3  1  1  0
  3  4  1  0
  3  5  2  0
  4  6  2  0
  7  4  1  0
  6  8  1  0
  9  7  2  0
  8 10  2  0
 10  9  1  0
 10 11  1  0
 11 12  2  0
 13 11  1  0
 12 14  1  0
 15 13  2  0
 14 16  2  0
 16 15  1  0
 16 17  1  0
  2 18  2  0
 19  2  1  0
 18 20  1  0
 21 19  2  0
 20 22  2  0
 22 21  1  0
 22 23  1  0
  1 24  1  0
  6 25  1  0
  7 26  1  0
  8 27  1  0
  9 28  1  0
 12 29  1  0
 13 30  1  0
 14 31  1  0
 15 32  1  0
 18 33  1  0
 19 34  1  0
 20 35  1  0
 21 36  1  0
 23 37  1  0
 23 38  1  0
 23 39  1  0
M  END
$$$$

     RDKit          3D

 36 38  0  0  0  0  0  0  0  0999 V2000
    2.2607    2.2948   -0.5673 N   0  0  0  0  0  0  0  0  0  0  0  0
    3.0843    1.1933   -0.6678 C   0  0  0  0  0  0  0  0  0  0  0  0
    1.7232    2.6647    0.6485 C   0  0  0  0  0  0  0  0  0  0  0  0
    0.4118    2.0308    0.9424 C   0  0  0  0  0  0  0  0  0  0  0  0
    2.2347    3.4727    1.4140 O   0  0  0  0  0  0  0  0  0  0  0  0
    0.4088    0.8595    1.6055 C   0  0  0  0  0  0  0  0  0  0  0  0
   -0.8118    2.5116    0.3222 C   0  0  0  0  0  0  0  0  0  0  0  0
   -0.7083   -0.0561    1.4291 C   0  0  0  0  0  0  0  0  0  0  0  0
   -1.8537    1.6716    0.1826 C   0  0  0  0  0  0  0  0  0  0  0  0
   -1.7645    0.2830    0.6530 C   0  0  0  0  0  0  0  0  0  0  0  0
   -2.7499   -0.7353    0.2931 C   0  0  0  0  0  0  0  0  0  0  0  0
   -2.5702   -1.4691   -0.8305 C   0  0  0  0  0  0  0  0  0  0  0  0
   -3.9546   -0.9838    1.0970 C   0  0  0  0  0  0  0  0  0  0  0  0
   -3.5152   -2.5099   -1.2035 C   0  0  0  0  0  0  0  0  0  0  0  0
   -4.8367   -1.9361    0.7436 C   0  0  0  0  0  0  0  0  0  0  0  0
   -4.5988   -2.7253   -0.4434 C   0  0  0  0  0  0  0  0  0  0  0  0
   -5.4906   -3.6810   -0.7678 F   0  0  0  0  0  0  0  0  0  0  0  0
    4.3082    1.1876   -0.1035 C   0  0  0  0  0  0  0  0  0  0  0  0
    2.5786   -0.0393   -1.2786 C   0  0  0  0  0  0  0  0  0  0  0  0
    4.9700   -0.0755    0.1791 C   0  0  0  0  0  0  0  0  0  0  0  0
    3.2338   -1.2000   -1.0838 C   0  0  0  0  0  0  0  0  0  0  0  0
    1.1705    0.0103   -2.2773 Cl  0  0  0  0  0  0  0  0  0  0  0  0
    4.4507   -1.2247   -0.2884 C   0  0  0  0  0  0  0  0  0  0  0  0
    1.6368    2.4252   -1.3566 H   0  0  0  0  0  0  0  0  0  0  0  0
    1.1578    0.6297    2.3568 H   0  0  0  0  0  0  0  0  0  0  0  0
   -0.8665    3.5474    0.0057 H   0  0  0  0  0  0  0  0  0  0  0  0
   -0.7070   -0.9675    2.0205 H   0  0  0  0  0  0  0  0  0  0  0  0
   -2.7873    2.0010   -0.2626 H   0  0  0  0  0  0  0  0  0  0  0  0
   -1.7248   -1.3021   -1.4918 H   0  0  0  0  0  0  0  0  0  0  0  0
   -4.1126   -0.3774    1.9834 H   0  0  0  0  0  0  0  0  0  0  0  0
   -3.3304   -3.0965   -2.0948 H   0  0  0  0  0  0  0  0  0  0  0  0
   -5.7312   -2.1352    1.3219 H   0  0  0  0  0  0  0  0  0  0  0  0
    4.7855    2.1052    0.2266 H   0  0  0  0  0  0  0  0  0  0  0  0
    5.8800   -0.0607    0.7704 H   0  0  0  0  0  0  0  0  0  0  0  0
    2.8935   -2.1313   -1.5238 H   0  0  0  0  0  0  0  0  0  0  0  0
    4.9248   -2.1813   -0.0944 H   0  0  0  0  0  0  0  0  0  0  0  0
  1  2  1  0
  3  1  1  0
  3  4  1  0
  3  5  2  0
  4  6  2  0
  7  4  1  0
  6  8  1  0
  9  7  2  0
  8 10  2  0
 10  9  1  0
 10 11  1  0
 11 12  2  0
 13 11  1  0
 12 14  1  0
 15 13  2  0
 14 16  2  0
 16 15  1  0
 16 17  1  0
  2 18  2  0
 19  2  1  0
 18 20  1  0
 21 19  2  0
 19 22  1  0
 20 23  2  0
 23 21  1  0
  1 24  1  0
  6 25  1  0
  7 26  1  0
  8 27  1  0
  9 28  1  0
 12 29  1  0
 13 30  1  0
 14 31  1  0
 15 32  1  0
 18 33  1  0
 20 34  1  0
 21 35  1  0
 23 36  1  0
M  END
$$$$
