
 OpenBabel07052409263D

 22 22  0  0  0  0  0  0  0  0999 V2000
  -51.7729    1.0748  -21.7068 C   0  0  0  0  0  0  0  0  0  0  0  0
  -50.8056    0.3506  -21.1091 C   0  0  0  0  0  0  0  0  0  0  0  0
  -52.5798    1.9897  -20.9150 C   0  0  0  0  0  0  0  0  0  0  0  0
  -50.4236    0.6473  -19.7379 C   0  0  0  0  0  0  0  0  0  0  0  0
  -52.2635    2.2248  -19.6269 C   0  0  0  0  0  0  0  0  0  0  0  0
  -53.6620    2.5524  -21.5468 O   0  0  0  0  0  0  0  0  0  0  0  0
  -51.1180    1.5505  -19.0159 C   0  0  0  0  0  0  0  0  0  0  0  0
  -50.7825    1.9040  -17.6000 C   0  0  0  0  0  0  0  0  0  0  0  0
  -51.7154    1.1688  -23.1785 C   0  0  0  0  0  0  0  0  0  0  0  0
  -52.6679    1.0326  -23.9303 O   0  0  0  0  0  0  0  0  0  0  0  0
  -50.4554    1.5019  -23.5588 O   0  0  0  0  0  0  0  0  0  0  0  0
  -50.4502    2.2450  -24.7743 C   0  0  0  0  0  0  0  0  0  0  0  0
  -50.3376   -0.4121  -21.6232 H   0  0  0  0  0  0  0  0  0  0  0  0
  -49.6162    0.1638  -19.3145 H   0  0  0  0  0  0  0  0  0  0  0  0
  -52.8308    2.8824  -19.0695 H   0  0  0  0  0  0  0  0  0  0  0  0
  -53.8352    2.3535  -22.4459 H   0  0  0  0  0  0  0  0  0  0  0  0
  -49.9298    1.3401  -17.2841 H   0  0  0  0  0  0  0  0  0  0  0  0
  -51.6153    1.6752  -16.9683 H   0  0  0  0  0  0  0  0  0  0  0  0
  -50.5627    2.9492  -17.5358 H   0  0  0  0  0  0  0  0  0  0  0  0
  -49.4424    2.4877  -25.0397 H   0  0  0  0  0  0  0  0  0  0  0  0
  -51.0116    3.1465  -24.6436 H   0  0  0  0  0  0  0  0  0  0  0  0
  -50.8927    1.6589  -25.5525 H   0  0  0  0  0  0  0  0  0  0  0  0
  1  2  2  0  0  0  0
  2  4  1  0  0  0  0
  2 13  1  0  0  0  0
  3  1  1  0  0  0  0
  3  6  1  0  0  0  0
  4  7  2  0  0  0  0
  4 14  1  0  0  0  0
  5  3  2  0  0  0  0
  5 15  1  0  0  0  0
  6 16  1  0  0  0  0
  7  5  1  0  0  0  0
  7  8  1  0  0  0  0
  8 17  1  0  0  0  0
  8 18  1  0  0  0  0
  8 19  1  0  0  0  0
  9 11  1  0  0  0  0
  9  1  1  0  0  0  0
  9 10  2  0  0  0  0
 11 12  1  0  0  0  0
 12 20  1  0  0  0  0
 12 21  1  0  0  0  0
 12 22  1  0  0  0  0
M  END
>  <minimizedAffinity>
-5.71691

$$$$

 OpenBabel07052409263D

 31 32  0  0  0  0  0  0  0  0999 V2000
  -52.3563    0.6715  -18.9881 N   0  0  0  0  0  0  0  0  0  0  0  0
  -52.2609    1.5958  -20.0055 C   0  0  0  0  0  0  0  0  0  0  0  0
  -52.3468    2.8077  -19.8445 O   0  0  0  0  0  0  0  0  0  0  0  0
  -51.2371    0.3547  -18.2398 C   0  0  0  0  0  0  0  0  0  0  0  0
  -50.4523   -0.6944  -18.5606 C   0  0  0  0  0  0  0  0  0  0  0  0
  -50.7047    1.3874  -17.3521 C   0  0  0  0  0  0  0  0  0  0  0  0
  -49.0303   -0.6900  -18.2215 C   0  0  0  0  0  0  0  0  0  0  0  0
  -49.4134    1.3701  -16.9865 C   0  0  0  0  0  0  0  0  0  0  0  0
  -51.5633    2.3645  -16.9061 O   0  0  0  0  0  0  0  0  0  0  0  0
  -47.8072   -2.2149  -18.8808 I   0  0  0  0  0  0  0  0  0  0  0  0
  -48.5396    0.3098  -17.4606 C   0  0  0  0  0  0  0  0  0  0  0  0
  -52.0313    1.0136  -21.3493 C   0  0  0  0  0  0  0  0  0  0  0  0
  -50.9684    0.2012  -21.5133 C   0  0  0  0  0  0  0  0  0  0  0  0
  -52.6319    1.6313  -22.5225 C   0  0  0  0  0  0  0  0  0  0  0  0
  -50.1561    0.3427  -22.7126 C   0  0  0  0  0  0  0  0  0  0  0  0
  -51.9410    1.6768  -23.6745 C   0  0  0  0  0  0  0  0  0  0  0  0
  -53.9144    2.1191  -22.4256 O   0  0  0  0  0  0  0  0  0  0  0  0
  -50.6152    1.0626  -23.7586 C   0  0  0  0  0  0  0  0  0  0  0  0
  -49.8498    1.2528  -25.0314 C   0  0  0  0  0  0  0  0  0  0  0  0
  -53.2186    0.2378  -18.7944 H   0  0  0  0  0  0  0  0  0  0  0  0
  -50.8592   -1.5071  -19.0496 H   0  0  0  0  0  0  0  0  0  0  0  0
  -49.0413    2.1089  -16.3694 H   0  0  0  0  0  0  0  0  0  0  0  0
  -52.4611    2.3572  -17.1741 H   0  0  0  0  0  0  0  0  0  0  0  0
  -47.5377    0.3220  -17.2136 H   0  0  0  0  0  0  0  0  0  0  0  0
  -50.7348   -0.5084  -20.8013 H   0  0  0  0  0  0  0  0  0  0  0  0
  -49.2288   -0.1074  -22.7636 H   0  0  0  0  0  0  0  0  0  0  0  0
  -52.3456    2.1451  -24.5003 H   0  0  0  0  0  0  0  0  0  0  0  0
  -54.3723    2.0742  -21.6093 H   0  0  0  0  0  0  0  0  0  0  0  0
  -48.9053    0.7556  -24.9573 H   0  0  0  0  0  0  0  0  0  0  0  0
  -49.6907    2.2975  -25.1992 H   0  0  0  0  0  0  0  0  0  0  0  0
  -50.4065    0.8412  -25.8473 H   0  0  0  0  0  0  0  0  0  0  0  0
  1  4  1  0  0  0  0
  1 20  1  0  0  0  0
  2  1  1  0  0  0  0
  2 12  1  0  0  0  0
  2  3  2  0  0  0  0
  4  5  2  0  0  0  0
  5  7  1  0  0  0  0
  5 21  1  0  0  0  0
  6  4  1  0  0  0  0
  6  9  1  0  0  0  0
  7 10  1  0  0  0  0
  7 11  2  0  0  0  0
  8  6  2  0  0  0  0
  8 22  1  0  0  0  0
  9 23  1  0  0  0  0
 11  8  1  0  0  0  0
 11 24  1  0  0  0  0
 12 13  2  0  0  0  0
 13 15  1  0  0  0  0
 13 25  1  0  0  0  0
 14 12  1  0  0  0  0
 14 17  1  0  0  0  0
 15 18  2  0  0  0  0
 15 26  1  0  0  0  0
 16 14  2  0  0  0  0
 16 27  1  0  0  0  0
 17 28  1  0  0  0  0
 18 16  1  0  0  0  0
 18 19  1  0  0  0  0
 19 29  1  0  0  0  0
 19 30  1  0  0  0  0
 19 31  1  0  0  0  0
M  END
>  <minimizedAffinity>
-8.17935

$$$$

 OpenBabel07052409263D

 30 31  0  0  0  0  0  0  0  0999 V2000
  -51.7155    0.3739  -24.0737 N   0  0  0  0  0  0  0  0  0  0  0  0
  -50.9454   -0.2419  -23.1117 C   0  0  0  0  0  0  0  0  0  0  0  0
  -50.6207   -1.4246  -23.1352 O   0  0  0  0  0  0  0  0  0  0  0  0
  -50.6380    0.6007  -21.9295 C   0  0  0  0  0  0  0  0  0  0  0  0
  -51.5705    1.4733  -21.5018 C   0  0  0  0  0  0  0  0  0  0  0  0
  -49.5439    0.2428  -21.0394 C   0  0  0  0  0  0  0  0  0  0  0  0
  -51.7472    1.6665  -20.0704 C   0  0  0  0  0  0  0  0  0  0  0  0
  -49.6435    0.5067  -19.7251 C   0  0  0  0  0  0  0  0  0  0  0  0
  -48.4132   -0.3222  -21.5829 O   0  0  0  0  0  0  0  0  0  0  0  0
  -50.8259    1.1938  -19.2039 C   0  0  0  0  0  0  0  0  0  0  0  0
  -50.9326    1.3501  -17.7190 C   0  0  0  0  0  0  0  0  0  0  0  0
  -51.1436    1.0371  -25.1384 C   0  0  0  0  0  0  0  0  0  0  0  0
  -50.6293    2.2736  -24.9870 C   0  0  0  0  0  0  0  0  0  0  0  0
  -51.2712    0.4848  -26.4943 C   0  0  0  0  0  0  0  0  0  0  0  0
  -50.6195    3.1895  -26.1141 C   0  0  0  0  0  0  0  0  0  0  0  0
  -51.1565    1.3143  -27.5515 C   0  0  0  0  0  0  0  0  0  0  0  0
  -51.5340   -1.3523  -26.7208 Br  0  0  0  0  0  0  0  0  0  0  0  0
  -50.8791    2.7277  -27.3497 C   0  0  0  0  0  0  0  0  0  0  0  0
  -52.6966    0.3396  -23.9992 H   0  0  0  0  0  0  0  0  0  0  0  0
  -52.1497    1.9958  -22.1775 H   0  0  0  0  0  0  0  0  0  0  0  0
  -52.5783    2.1658  -19.7168 H   0  0  0  0  0  0  0  0  0  0  0  0
  -48.8860    0.2247  -19.0835 H   0  0  0  0  0  0  0  0  0  0  0  0
  -48.3717   -0.4951  -22.5029 H   0  0  0  0  0  0  0  0  0  0  0  0
  -51.8386    1.8662  -17.4789 H   0  0  0  0  0  0  0  0  0  0  0  0
  -50.0961    1.9115  -17.3584 H   0  0  0  0  0  0  0  0  0  0  0  0
  -50.9393    0.3844  -17.2583 H   0  0  0  0  0  0  0  0  0  0  0  0
  -50.2448    2.5679  -24.0756 H   0  0  0  0  0  0  0  0  0  0  0  0
  -50.4142    4.1901  -25.9672 H   0  0  0  0  0  0  0  0  0  0  0  0
  -51.2661    0.9442  -28.5086 H   0  0  0  0  0  0  0  0  0  0  0  0
  -50.8815    3.3749  -28.1535 H   0  0  0  0  0  0  0  0  0  0  0  0
  1 12  1  0  0  0  0
  1 19  1  0  0  0  0
  2  1  1  0  0  0  0
  2  4  1  0  0  0  0
  2  3  2  0  0  0  0
  4  5  2  0  0  0  0
  5  7  1  0  0  0  0
  5 20  1  0  0  0  0
  6  4  1  0  0  0  0
  6  9  1  0  0  0  0
  7 10  2  0  0  0  0
  7 21  1  0  0  0  0
  8  6  2  0  0  0  0
  8 22  1  0  0  0  0
  9 23  1  0  0  0  0
 10  8  1  0  0  0  0
 10 11  1  0  0  0  0
 11 24  1  0  0  0  0
 11 25  1  0  0  0  0
 11 26  1  0  0  0  0
 12 13  2  0  0  0  0
 13 15  1  0  0  0  0
 13 27  1  0  0  0  0
 14 12  1  0  0  0  0
 14 17  1  0  0  0  0
 15 18  2  0  0  0  0
 15 28  1  0  0  0  0
 16 14  2  0  0  0  0
 16 29  1  0  0  0  0
 18 16  1  0  0  0  0
 18 30  1  0  0  0  0
M  END
>  <minimizedAffinity>
-7.56081

$$$$

 OpenBabel07052409263D

 33 34  0  0  0  0  0  0  0  0999 V2000
  -49.8884   -0.9404  -22.7426 N   0  0  0  0  0  0  0  0  0  0  0  0
  -50.7802   -1.1760  -23.7617 C   0  0  0  0  0  0  0  0  0  0  0  0
  -51.7100   -1.9740  -23.6808 O   0  0  0  0  0  0  0  0  0  0  0  0
  -50.5653   -0.3813  -24.9970 C   0  0  0  0  0  0  0  0  0  0  0  0
  -49.8725    0.7729  -24.9335 C   0  0  0  0  0  0  0  0  0  0  0  0
  -51.3140   -0.6909  -26.2086 C   0  0  0  0  0  0  0  0  0  0  0  0
  -50.2218    1.8582  -25.8384 C   0  0  0  0  0  0  0  0  0  0  0  0
  -51.5581    0.2794  -27.1063 C   0  0  0  0  0  0  0  0  0  0  0  0
  -51.7097   -1.9920  -26.4275 O   0  0  0  0  0  0  0  0  0  0  0  0
  -51.0412    1.6302  -26.8866 C   0  0  0  0  0  0  0  0  0  0  0  0
  -51.4411    2.6871  -27.8683 C   0  0  0  0  0  0  0  0  0  0  0  0
  -50.1014    0.1122  -21.8819 C   0  0  0  0  0  0  0  0  0  0  0  0
  -49.2085    0.4026  -20.9184 C   0  0  0  0  0  0  0  0  0  0  0  0
  -51.4390    0.6815  -21.8090 C   0  0  0  0  0  0  0  0  0  0  0  0
  -49.6425    1.0680  -19.7011 C   0  0  0  0  0  0  0  0  0  0  0  0
  -51.8260    1.3548  -20.7101 C   0  0  0  0  0  0  0  0  0  0  0  0
  -50.9036    1.5332  -19.5915 C   0  0  0  0  0  0  0  0  0  0  0  0
  -51.4182    2.2436  -18.3783 C   0  0  0  0  0  0  0  0  0  0  0  0
  -49.1017   -1.5213  -22.6290 H   0  0  0  0  0  0  0  0  0  0  0  0
  -49.1051    0.8857  -24.2528 H   0  0  0  0  0  0  0  0  0  0  0  0
  -49.8421    2.8043  -25.6782 H   0  0  0  0  0  0  0  0  0  0  0  0
  -52.1113    0.0710  -27.9522 H   0  0  0  0  0  0  0  0  0  0  0  0
  -51.5281   -2.6510  -25.7867 H   0  0  0  0  0  0  0  0  0  0  0  0
  -50.9959    3.6194  -27.5898 H   0  0  0  0  0  0  0  0  0  0  0  0
  -52.5064    2.7871  -27.8705 H   0  0  0  0  0  0  0  0  0  0  0  0
  -51.1068    2.4103  -28.8463 H   0  0  0  0  0  0  0  0  0  0  0  0
  -48.2150    0.1529  -21.0436 H   0  0  0  0  0  0  0  0  0  0  0  0
  -52.0912    0.5687  -22.6008 H   0  0  0  0  0  0  0  0  0  0  0  0
  -48.9822    1.1850  -18.9167 H   0  0  0  0  0  0  0  0  0  0  0  0
  -52.7791    1.7471  -20.6573 H   0  0  0  0  0  0  0  0  0  0  0  0
  -50.6424    2.3027  -17.6437 H   0  0  0  0  0  0  0  0  0  0  0  0
  -52.2503    1.7048  -17.9756 H   0  0  0  0  0  0  0  0  0  0  0  0
  -51.7296    3.2310  -18.6484 H   0  0  0  0  0  0  0  0  0  0  0  0
  1 12  1  0  0  0  0
  1 19  1  0  0  0  0
  2  1  1  0  0  0  0
  2  4  1  0  0  0  0
  2  3  2  0  0  0  0
  4  5  2  0  0  0  0
  5  7  1  0  0  0  0
  5 20  1  0  0  0  0
  6  4  1  0  0  0  0
  6  9  1  0  0  0  0
  7 10  2  0  0  0  0
  7 21  1  0  0  0  0
  8  6  2  0  0  0  0
  8 22  1  0  0  0  0
  9 23  1  0  0  0  0
 10  8  1  0  0  0  0
 10 11  1  0  0  0  0
 11 24  1  0  0  0  0
 11 25  1  0  0  0  0
 11 26  1  0  0  0  0
 12 13  2  0  0  0  0
 13 15  1  0  0  0  0
 13 27  1  0  0  0  0
 14 12  1  0  0  0  0
 14 28  1  0  0  0  0
 15 17  2  0  0  0  0
 15 29  1  0  0  0  0
 16 14  2  0  0  0  0
 16 30  1  0  0  0  0
 17 16  1  0  0  0  0
 17 18  1  0  0  0  0
 18 31  1  0  0  0  0
 18 32  1  0  0  0  0
 18 33  1  0  0  0  0
M  END
>  <minimizedAffinity>
-8.01173

$$$$

 OpenBabel07052409263D

 30 31  0  0  0  0  0  0  0  0999 V2000
  -51.9513    0.2004  -24.2792 N   0  0  0  0  0  0  0  0  0  0  0  0
  -51.1483   -0.3653  -23.3133 C   0  0  0  0  0  0  0  0  0  0  0  0
  -50.7895   -1.5385  -23.3075 O   0  0  0  0  0  0  0  0  0  0  0  0
  -50.8432    0.5196  -22.1621 C   0  0  0  0  0  0  0  0  0  0  0  0
  -51.7802    1.3955  -21.7515 C   0  0  0  0  0  0  0  0  0  0  0  0
  -49.7241    0.2171  -21.2825 C   0  0  0  0  0  0  0  0  0  0  0  0
  -51.9276    1.6496  -20.3264 C   0  0  0  0  0  0  0  0  0  0  0  0
  -49.7977    0.5392  -19.9796 C   0  0  0  0  0  0  0  0  0  0  0  0
  -48.5970   -0.3555  -21.8257 O   0  0  0  0  0  0  0  0  0  0  0  0
  -50.9784    1.2318  -19.4619 C   0  0  0  0  0  0  0  0  0  0  0  0
  -51.0511    1.4568  -17.9837 C   0  0  0  0  0  0  0  0  0  0  0  0
  -51.4115    0.7925  -25.4008 C   0  0  0  0  0  0  0  0  0  0  0  0
  -50.9695    2.0655  -25.3743 C   0  0  0  0  0  0  0  0  0  0  0  0
  -51.4001    0.0659  -26.6736 C   0  0  0  0  0  0  0  0  0  0  0  0
  -50.8078    2.8023  -26.6165 C   0  0  0  0  0  0  0  0  0  0  0  0
  -51.1667    0.7305  -27.8213 C   0  0  0  0  0  0  0  0  0  0  0  0
  -51.6457   -1.6435  -26.6907 Cl  0  0  0  0  0  0  0  0  0  0  0  0
  -50.9058    2.1607  -27.7941 C   0  0  0  0  0  0  0  0  0  0  0  0
  -52.9291    0.1814  -24.1663 H   0  0  0  0  0  0  0  0  0  0  0  0
  -52.3833    1.8782  -22.4358 H   0  0  0  0  0  0  0  0  0  0  0  0
  -52.7592    2.1501  -19.9758 H   0  0  0  0  0  0  0  0  0  0  0  0
  -49.0212    0.2980  -19.3440 H   0  0  0  0  0  0  0  0  0  0  0  0
  -48.5734   -0.5698  -22.7376 H   0  0  0  0  0  0  0  0  0  0  0  0
  -51.9595    1.9695  -17.7452 H   0  0  0  0  0  0  0  0  0  0  0  0
  -50.2155    2.0476  -17.6713 H   0  0  0  0  0  0  0  0  0  0  0  0
  -51.0303    0.5141  -17.4780 H   0  0  0  0  0  0  0  0  0  0  0  0
  -50.7462    2.5163  -24.4732 H   0  0  0  0  0  0  0  0  0  0  0  0
  -50.6180    3.8165  -26.5948 H   0  0  0  0  0  0  0  0  0  0  0  0
  -51.1730    0.2245  -28.7207 H   0  0  0  0  0  0  0  0  0  0  0  0
  -50.7960    2.6827  -28.6775 H   0  0  0  0  0  0  0  0  0  0  0  0
  1 12  1  0  0  0  0
  1 19  1  0  0  0  0
  2  1  1  0  0  0  0
  2  4  1  0  0  0  0
  2  3  2  0  0  0  0
  4  5  2  0  0  0  0
  5  7  1  0  0  0  0
  5 20  1  0  0  0  0
  6  4  1  0  0  0  0
  6  9  1  0  0  0  0
  7 10  2  0  0  0  0
  7 21  1  0  0  0  0
  8  6  2  0  0  0  0
  8 22  1  0  0  0  0
  9 23  1  0  0  0  0
 10  8  1  0  0  0  0
 10 11  1  0  0  0  0
 11 24  1  0  0  0  0
 11 25  1  0  0  0  0
 11 26  1  0  0  0  0
 12 13  2  0  0  0  0
 13 15  1  0  0  0  0
 13 27  1  0  0  0  0
 14 12  1  0  0  0  0
 14 17  1  0  0  0  0
 15 18  2  0  0  0  0
 15 28  1  0  0  0  0
 16 14  2  0  0  0  0
 16 29  1  0  0  0  0
 18 16  1  0  0  0  0
 18 30  1  0  0  0  0
M  END
>  <minimizedAffinity>
-7.45873

$$$$

 OpenBabel07052409263D

 30 31  0  0  0  0  0  0  0  0999 V2000
  -50.9964    1.8580  -22.3853 N   0  0  0  0  0  0  0  0  0  0  0  0
  -51.6340    1.3999  -21.2489 C   0  0  0  0  0  0  0  0  0  0  0  0
  -52.8067    1.0487  -21.2037 O   0  0  0  0  0  0  0  0  0  0  0  0
  -50.7445    1.3937  -20.0625 C   0  0  0  0  0  0  0  0  0  0  0  0
  -49.5417    0.8007  -20.1985 C   0  0  0  0  0  0  0  0  0  0  0  0
  -51.2105    1.7995  -18.7447 C   0  0  0  0  0  0  0  0  0  0  0  0
  -48.7381    0.5110  -19.0205 C   0  0  0  0  0  0  0  0  0  0  0  0
  -50.4594    1.5417  -17.6556 C   0  0  0  0  0  0  0  0  0  0  0  0
  -52.4169    2.4566  -18.6969 O   0  0  0  0  0  0  0  0  0  0  0  0
  -49.1729    0.8589  -17.7919 C   0  0  0  0  0  0  0  0  0  0  0  0
  -48.4034    0.5783  -16.5383 C   0  0  0  0  0  0  0  0  0  0  0  0
  -50.7709    0.9999  -23.4411 C   0  0  0  0  0  0  0  0  0  0  0  0
  -50.8975   -0.3331  -23.2827 C   0  0  0  0  0  0  0  0  0  0  0  0
  -50.5865    1.5365  -24.7912 C   0  0  0  0  0  0  0  0  0  0  0  0
  -51.2312   -1.1636  -24.4303 C   0  0  0  0  0  0  0  0  0  0  0  0
  -50.8034    0.7483  -25.8615 C   0  0  0  0  0  0  0  0  0  0  0  0
  -50.0252    3.1562  -24.9996 Cl  0  0  0  0  0  0  0  0  0  0  0  0
  -51.1901   -0.6390  -25.6685 C   0  0  0  0  0  0  0  0  0  0  0  0
  -51.5553   -1.5925  -27.0547 Cl  0  0  0  0  0  0  0  0  0  0  0  0
  -50.7032    2.7961  -22.4415 H   0  0  0  0  0  0  0  0  0  0  0  0
  -49.1912    0.5525  -21.1369 H   0  0  0  0  0  0  0  0  0  0  0  0
  -47.8282    0.0356  -19.1258 H   0  0  0  0  0  0  0  0  0  0  0  0
  -50.7933    1.8272  -16.7218 H   0  0  0  0  0  0  0  0  0  0  0  0
  -52.8986    2.6097  -19.4859 H   0  0  0  0  0  0  0  0  0  0  0  0
  -47.4897    0.0790  -16.7849 H   0  0  0  0  0  0  0  0  0  0  0  0
  -48.9873   -0.0445  -15.8932 H   0  0  0  0  0  0  0  0  0  0  0  0
  -48.1833    1.4998  -16.0411 H   0  0  0  0  0  0  0  0  0  0  0  0
  -50.7587   -0.7615  -22.3541 H   0  0  0  0  0  0  0  0  0  0  0  0
  -51.4983   -2.1512  -24.2948 H   0  0  0  0  0  0  0  0  0  0  0  0
  -50.6954    1.1281  -26.8150 H   0  0  0  0  0  0  0  0  0  0  0  0
  1 12  1  0  0  0  0
  1 20  1  0  0  0  0
  2  1  1  0  0  0  0
  2  4  1  0  0  0  0
  2  3  2  0  0  0  0
  4  5  2  0  0  0  0
  5  7  1  0  0  0  0
  5 21  1  0  0  0  0
  6  4  1  0  0  0  0
  6  9  1  0  0  0  0
  7 10  2  0  0  0  0
  7 22  1  0  0  0  0
  8  6  2  0  0  0  0
  8 23  1  0  0  0  0
  9 24  1  0  0  0  0
 10  8  1  0  0  0  0
 10 11  1  0  0  0  0
 11 25  1  0  0  0  0
 11 26  1  0  0  0  0
 11 27  1  0  0  0  0
 12 13  2  0  0  0  0
 13 15  1  0  0  0  0
 13 28  1  0  0  0  0
 14 12  1  0  0  0  0
 14 17  1  0  0  0  0
 15 18  2  0  0  0  0
 15 29  1  0  0  0  0
 16 14  2  0  0  0  0
 16 30  1  0  0  0  0
 18 16  1  0  0  0  0
 18 19  1  0  0  0  0
M  END
>  <minimizedAffinity>
-8.12098

$$$$

 OpenBabel07052409263D

 30 31  0  0  0  0  0  0  0  0999 V2000
  -51.3735   -0.2004  -22.7491 N   0  0  0  0  0  0  0  0  0  0  0  0
  -50.3283   -0.5449  -23.5745 C   0  0  0  0  0  0  0  0  0  0  0  0
  -49.5785   -1.4953  -23.3683 O   0  0  0  0  0  0  0  0  0  0  0  0
  -50.2544    0.2156  -24.8456 C   0  0  0  0  0  0  0  0  0  0  0  0
  -49.9701    1.5323  -24.8264 C   0  0  0  0  0  0  0  0  0  0  0  0
  -50.7087   -0.3901  -26.0905 C   0  0  0  0  0  0  0  0  0  0  0  0
  -50.5371    2.3916  -25.8551 C   0  0  0  0  0  0  0  0  0  0  0  0
  -51.1378    0.3941  -27.0943 C   0  0  0  0  0  0  0  0  0  0  0  0
  -50.6331   -1.7587  -26.2248 O   0  0  0  0  0  0  0  0  0  0  0  0
  -51.1087    1.8500  -26.9517 C   0  0  0  0  0  0  0  0  0  0  0  0
  -51.7022    2.6615  -28.0611 C   0  0  0  0  0  0  0  0  0  0  0  0
  -51.1598    0.6032  -21.6541 C   0  0  0  0  0  0  0  0  0  0  0  0
  -50.0714    0.4713  -20.8709 C   0  0  0  0  0  0  0  0  0  0  0  0
  -52.2861    1.4028  -21.1937 C   0  0  0  0  0  0  0  0  0  0  0  0
  -50.0640    1.0377  -19.5304 C   0  0  0  0  0  0  0  0  0  0  0  0
  -52.2679    1.9518  -19.9647 C   0  0  0  0  0  0  0  0  0  0  0  0
  -51.1189    1.7511  -19.0980 C   0  0  0  0  0  0  0  0  0  0  0  0
  -51.1431    2.4481  -17.5256 Cl  0  0  0  0  0  0  0  0  0  0  0  0
  -52.2801   -0.5313  -22.9436 H   0  0  0  0  0  0  0  0  0  0  0  0
  -49.3595    1.9257  -24.0933 H   0  0  0  0  0  0  0  0  0  0  0  0
  -50.5021    3.4172  -25.7460 H   0  0  0  0  0  0  0  0  0  0  0  0
  -51.4883   -0.0313  -27.9668 H   0  0  0  0  0  0  0  0  0  0  0  0
  -50.3306   -2.2836  -25.5100 H   0  0  0  0  0  0  0  0  0  0  0  0
  -51.6143    3.7022  -27.8283 H   0  0  0  0  0  0  0  0  0  0  0  0
  -52.7353    2.4077  -28.1754 H   0  0  0  0  0  0  0  0  0  0  0  0
  -51.1812    2.4547  -28.9725 H   0  0  0  0  0  0  0  0  0  0  0  0
  -49.2418   -0.0321  -21.2221 H   0  0  0  0  0  0  0  0  0  0  0  0
  -53.1002    1.5490  -21.8109 H   0  0  0  0  0  0  0  0  0  0  0  0
  -49.2504    0.8921  -18.9124 H   0  0  0  0  0  0  0  0  0  0  0  0
  -53.0690    2.5146  -19.6384 H   0  0  0  0  0  0  0  0  0  0  0  0
  1 12  1  0  0  0  0
  1 19  1  0  0  0  0
  2  1  1  0  0  0  0
  2  4  1  0  0  0  0
  2  3  2  0  0  0  0
  4  5  2  0  0  0  0
  5  7  1  0  0  0  0
  5 20  1  0  0  0  0
  6  4  1  0  0  0  0
  6  9  1  0  0  0  0
  7 10  2  0  0  0  0
  7 21  1  0  0  0  0
  8  6  2  0  0  0  0
  8 22  1  0  0  0  0
  9 23  1  0  0  0  0
 10  8  1  0  0  0  0
 10 11  1  0  0  0  0
 11 24  1  0  0  0  0
 11 25  1  0  0  0  0
 11 26  1  0  0  0  0
 12 13  2  0  0  0  0
 13 15  1  0  0  0  0
 13 27  1  0  0  0  0
 14 12  1  0  0  0  0
 14 28  1  0  0  0  0
 15 17  2  0  0  0  0
 15 29  1  0  0  0  0
 16 14  2  0  0  0  0
 16 30  1  0  0  0  0
 17 16  1  0  0  0  0
 17 18  1  0  0  0  0
M  END
>  <minimizedAffinity>
-8.13132

$$$$

 OpenBabel07052409263D

 31 32  0  0  0  0  0  0  0  0999 V2000
  -51.0366    1.4914  -21.7423 N   0  0  0  0  0  0  0  0  0  0  0  0
  -52.1422    1.4484  -22.5714 C   0  0  0  0  0  0  0  0  0  0  0  0
  -53.2928    1.6888  -22.2252 O   0  0  0  0  0  0  0  0  0  0  0  0
  -51.0750    0.9329  -20.4825 C   0  0  0  0  0  0  0  0  0  0  0  0
  -51.4562    1.6807  -19.4290 C   0  0  0  0  0  0  0  0  0  0  0  0
  -50.2746   -0.2698  -20.2404 C   0  0  0  0  0  0  0  0  0  0  0  0
  -50.8006    1.5136  -18.1418 C   0  0  0  0  0  0  0  0  0  0  0  0
  -49.7245   -0.4838  -19.0259 C   0  0  0  0  0  0  0  0  0  0  0  0
  -50.1248   -1.1427  -21.2974 O   0  0  0  0  0  0  0  0  0  0  0  0
  -51.1795    2.7487  -16.7997 Br  0  0  0  0  0  0  0  0  0  0  0  0
  -49.9687    0.4722  -17.9510 C   0  0  0  0  0  0  0  0  0  0  0  0
  -48.6704   -1.9713  -18.6180 Br  0  0  0  0  0  0  0  0  0  0  0  0
  -51.7929    1.1372  -23.9805 C   0  0  0  0  0  0  0  0  0  0  0  0
  -50.5658    1.5026  -24.4012 C   0  0  0  0  0  0  0  0  0  0  0  0
  -52.7832    0.6749  -24.9404 C   0  0  0  0  0  0  0  0  0  0  0  0
  -50.2590    1.5042  -25.8227 C   0  0  0  0  0  0  0  0  0  0  0  0
  -52.4939    0.6647  -26.2556 C   0  0  0  0  0  0  0  0  0  0  0  0
  -53.9798    0.2363  -24.4233 O   0  0  0  0  0  0  0  0  0  0  0  0
  -51.1818    1.1095  -26.7236 C   0  0  0  0  0  0  0  0  0  0  0  0
  -50.9354    1.0996  -28.2010 C   0  0  0  0  0  0  0  0  0  0  0  0
  -50.2110    1.9266  -22.0557 H   0  0  0  0  0  0  0  0  0  0  0  0
  -52.2142    2.3729  -19.5355 H   0  0  0  0  0  0  0  0  0  0  0  0
  -50.5254   -0.9522  -22.1227 H   0  0  0  0  0  0  0  0  0  0  0  0
  -49.5011    0.3495  -17.0392 H   0  0  0  0  0  0  0  0  0  0  0  0
  -49.8456    1.7806  -23.7163 H   0  0  0  0  0  0  0  0  0  0  0  0
  -49.3274    1.8099  -26.1448 H   0  0  0  0  0  0  0  0  0  0  0  0
  -53.2003    0.3420  -26.9352 H   0  0  0  0  0  0  0  0  0  0  0  0
  -54.1294    0.2654  -23.4988 H   0  0  0  0  0  0  0  0  0  0  0  0
  -49.9428    1.4465  -28.3994 H   0  0  0  0  0  0  0  0  0  0  0  0
  -51.6412    1.7422  -28.6846 H   0  0  0  0  0  0  0  0  0  0  0  0
  -51.0462    0.1030  -28.5744 H   0  0  0  0  0  0  0  0  0  0  0  0
  1  4  1  0  0  0  0
  1 21  1  0  0  0  0
  2  1  1  0  0  0  0
  2 13  1  0  0  0  0
  2  3  2  0  0  0  0
  4  5  2  0  0  0  0
  5  7  1  0  0  0  0
  5 22  1  0  0  0  0
  6  4  1  0  0  0  0
  6  9  1  0  0  0  0
  7 10  1  0  0  0  0
  7 11  2  0  0  0  0
  8  6  2  0  0  0  0
  8 12  1  0  0  0  0
  9 23  1  0  0  0  0
 11  8  1  0  0  0  0
 11 24  1  0  0  0  0
 13 14  2  0  0  0  0
 14 16  1  0  0  0  0
 14 25  1  0  0  0  0
 15 13  1  0  0  0  0
 15 18  1  0  0  0  0
 16 19  2  0  0  0  0
 16 26  1  0  0  0  0
 17 15  2  0  0  0  0
 17 27  1  0  0  0  0
 18 28  1  0  0  0  0
 19 17  1  0  0  0  0
 19 20  1  0  0  0  0
 20 29  1  0  0  0  0
 20 30  1  0  0  0  0
 20 31  1  0  0  0  0
M  END
>  <minimizedAffinity>
-7.76539

$$$$

 OpenBabel07052409263D

 30 31  0  0  0  0  0  0  0  0999 V2000
  -51.6177   -0.0614  -22.4799 N   0  0  0  0  0  0  0  0  0  0  0  0
  -50.6640   -0.5985  -23.3130 C   0  0  0  0  0  0  0  0  0  0  0  0
  -50.1759   -1.7150  -23.1634 O   0  0  0  0  0  0  0  0  0  0  0  0
  -50.3674    0.2041  -24.5236 C   0  0  0  0  0  0  0  0  0  0  0  0
  -50.0868    1.5156  -24.3990 C   0  0  0  0  0  0  0  0  0  0  0  0
  -50.6291   -0.3388  -25.8492 C   0  0  0  0  0  0  0  0  0  0  0  0
  -50.4913    2.4271  -25.4590 C   0  0  0  0  0  0  0  0  0  0  0  0
  -50.9017    0.4949  -26.8678 C   0  0  0  0  0  0  0  0  0  0  0  0
  -50.5339   -1.6999  -26.0351 O   0  0  0  0  0  0  0  0  0  0  0  0
  -50.8926    1.9424  -26.6534 C   0  0  0  0  0  0  0  0  0  0  0  0
  -51.3119    2.8103  -27.7994 C   0  0  0  0  0  0  0  0  0  0  0  0
  -51.2448    0.6284  -21.3504 C   0  0  0  0  0  0  0  0  0  0  0  0
  -50.1555    0.2929  -20.6331 C   0  0  0  0  0  0  0  0  0  0  0  0
  -52.2219    1.5463  -20.7860 C   0  0  0  0  0  0  0  0  0  0  0  0
  -50.0199    0.7481  -19.2580 C   0  0  0  0  0  0  0  0  0  0  0  0
  -52.0791    1.9955  -19.5253 C   0  0  0  0  0  0  0  0  0  0  0  0
  -50.9414    1.5707  -18.7211 C   0  0  0  0  0  0  0  0  0  0  0  0
  -50.8191    2.2013  -16.9722 Br  0  0  0  0  0  0  0  0  0  0  0  0
  -52.5724   -0.1715  -22.6935 H   0  0  0  0  0  0  0  0  0  0  0  0
  -49.5926    1.8687  -23.5647 H   0  0  0  0  0  0  0  0  0  0  0  0
  -50.4713    3.4462  -25.2973 H   0  0  0  0  0  0  0  0  0  0  0  0
  -51.1177    0.1137  -27.8022 H   0  0  0  0  0  0  0  0  0  0  0  0
  -50.3428   -2.2598  -25.3085 H   0  0  0  0  0  0  0  0  0  0  0  0
  -51.2586    3.8381  -27.5066 H   0  0  0  0  0  0  0  0  0  0  0  0
  -52.3165    2.5708  -28.0793 H   0  0  0  0  0  0  0  0  0  0  0  0
  -50.6602    2.6422  -28.6312 H   0  0  0  0  0  0  0  0  0  0  0  0
  -49.4163   -0.2876  -21.0593 H   0  0  0  0  0  0  0  0  0  0  0  0
  -53.0269    1.8540  -21.3538 H   0  0  0  0  0  0  0  0  0  0  0  0
  -49.2143    0.4394  -18.6916 H   0  0  0  0  0  0  0  0  0  0  0  0
  -52.7776    2.6427  -19.1274 H   0  0  0  0  0  0  0  0  0  0  0  0
  1 12  1  0  0  0  0
  1 19  1  0  0  0  0
  2  1  1  0  0  0  0
  2  4  1  0  0  0  0
  2  3  2  0  0  0  0
  4  5  2  0  0  0  0
  5  7  1  0  0  0  0
  5 20  1  0  0  0  0
  6  4  1  0  0  0  0
  6  9  1  0  0  0  0
  7 10  2  0  0  0  0
  7 21  1  0  0  0  0
  8  6  2  0  0  0  0
  8 22  1  0  0  0  0
  9 23  1  0  0  0  0
 10  8  1  0  0  0  0
 10 11  1  0  0  0  0
 11 24  1  0  0  0  0
 11 25  1  0  0  0  0
 11 26  1  0  0  0  0
 12 13  2  0  0  0  0
 13 15  1  0  0  0  0
 13 27  1  0  0  0  0
 14 12  1  0  0  0  0
 14 28  1  0  0  0  0
 15 17  2  0  0  0  0
 15 29  1  0  0  0  0
 16 14  2  0  0  0  0
 16 30  1  0  0  0  0
 17 16  1  0  0  0  0
 17 18  1  0  0  0  0
M  END
>  <minimizedAffinity>
-7.97265

$$$$

 OpenBabel07052409263D

 31 32  0  0  0  0  0  0  0  0999 V2000
  -52.1458    0.8215  -18.8122 N   0  0  0  0  0  0  0  0  0  0  0  0
  -51.9401    1.7965  -19.7687 C   0  0  0  0  0  0  0  0  0  0  0  0
  -51.8236    2.9900  -19.5134 O   0  0  0  0  0  0  0  0  0  0  0  0
  -52.0328    1.2846  -21.1585 C   0  0  0  0  0  0  0  0  0  0  0  0
  -51.1659    0.3149  -21.5121 C   0  0  0  0  0  0  0  0  0  0  0  0
  -52.9716    1.8085  -22.1382 C   0  0  0  0  0  0  0  0  0  0  0  0
  -51.0629   -0.0904  -22.9049 C   0  0  0  0  0  0  0  0  0  0  0  0
  -52.9061    1.4009  -23.4198 C   0  0  0  0  0  0  0  0  0  0  0  0
  -53.8771    2.7321  -21.6823 O   0  0  0  0  0  0  0  0  0  0  0  0
  -51.8997    0.4224  -23.8301 C   0  0  0  0  0  0  0  0  0  0  0  0
  -51.8599    0.0382  -25.2772 C   0  0  0  0  0  0  0  0  0  0  0  0
  -51.0981    0.4108  -18.0076 C   0  0  0  0  0  0  0  0  0  0  0  0
  -50.2431   -0.5512  -18.4102 C   0  0  0  0  0  0  0  0  0  0  0  0
  -50.6615    1.3356  -16.9594 C   0  0  0  0  0  0  0  0  0  0  0  0
  -48.8372   -0.4779  -18.0442 C   0  0  0  0  0  0  0  0  0  0  0  0
  -49.3797    1.3573  -16.5584 C   0  0  0  0  0  0  0  0  0  0  0  0
  -51.6084    2.1668  -16.4066 O   0  0  0  0  0  0  0  0  0  0  0  0
  -48.4223    0.4395  -17.1520 C   0  0  0  0  0  0  0  0  0  0  0  0
  -53.0376    0.4190  -18.7031 H   0  0  0  0  0  0  0  0  0  0  0  0
  -50.5769   -0.1387  -20.7963 H   0  0  0  0  0  0  0  0  0  0  0  0
  -50.3444   -0.7753  -23.1874 H   0  0  0  0  0  0  0  0  0  0  0  0
  -53.5681    1.7802  -24.1147 H   0  0  0  0  0  0  0  0  0  0  0  0
  -53.8787    2.9802  -20.7787 H   0  0  0  0  0  0  0  0  0  0  0  0
  -51.0820   -0.6795  -25.4344 H   0  0  0  0  0  0  0  0  0  0  0  0
  -51.6690    0.9071  -25.8718 H   0  0  0  0  0  0  0  0  0  0  0  0
  -52.8002   -0.3874  -25.5592 H   0  0  0  0  0  0  0  0  0  0  0  0
  -50.5868   -1.3408  -18.9789 H   0  0  0  0  0  0  0  0  0  0  0  0
  -48.1585   -1.1292  -18.4687 H   0  0  0  0  0  0  0  0  0  0  0  0
  -49.0759    2.0236  -15.8312 H   0  0  0  0  0  0  0  0  0  0  0  0
  -52.4957    2.1304  -16.7056 H   0  0  0  0  0  0  0  0  0  0  0  0
  -47.4256    0.4913  -16.8896 H   0  0  0  0  0  0  0  0  0  0  0  0
  1 12  1  0  0  0  0
  1 19  1  0  0  0  0
  2  1  1  0  0  0  0
  2  4  1  0  0  0  0
  2  3  2  0  0  0  0
  4  5  2  0  0  0  0
  5  7  1  0  0  0  0
  5 20  1  0  0  0  0
  6  4  1  0  0  0  0
  6  9  1  0  0  0  0
  7 10  2  0  0  0  0
  7 21  1  0  0  0  0
  8  6  2  0  0  0  0
  8 22  1  0  0  0  0
  9 23  1  0  0  0  0
 10  8  1  0  0  0  0
 10 11  1  0  0  0  0
 11 24  1  0  0  0  0
 11 25  1  0  0  0  0
 11 26  1  0  0  0  0
 12 13  2  0  0  0  0
 13 15  1  0  0  0  0
 13 27  1  0  0  0  0
 14 12  1  0  0  0  0
 14 17  1  0  0  0  0
 15 18  2  0  0  0  0
 15 28  1  0  0  0  0
 16 14  2  0  0  0  0
 16 29  1  0  0  0  0
 17 30  1  0  0  0  0
 18 16  1  0  0  0  0
 18 31  1  0  0  0  0
M  END
>  <minimizedAffinity>
-7.70918

$$$$

 OpenBabel07052409263D

 34 35  0  0  0  0  0  0  0  0999 V2000
  -50.9912   -0.0221  -21.8234 N   0  0  0  0  0  0  0  0  0  0  0  0
  -50.3028    0.0926  -23.0105 C   0  0  0  0  0  0  0  0  0  0  0  0
  -49.2054   -0.4109  -23.2235 O   0  0  0  0  0  0  0  0  0  0  0  0
  -50.7240    0.8514  -20.7852 C   0  0  0  0  0  0  0  0  0  0  0  0
  -49.6540    0.6771  -19.9843 C   0  0  0  0  0  0  0  0  0  0  0  0
  -51.8302    1.6764  -20.3004 C   0  0  0  0  0  0  0  0  0  0  0  0
  -49.7199    1.0562  -18.5816 C   0  0  0  0  0  0  0  0  0  0  0  0
  -51.8632    2.0932  -19.0240 C   0  0  0  0  0  0  0  0  0  0  0  0
  -52.8237    2.0123  -21.1910 O   0  0  0  0  0  0  0  0  0  0  0  0
  -50.7803    1.7425  -18.1090 C   0  0  0  0  0  0  0  0  0  0  0  0
  -50.9120    2.1818  -16.6842 C   0  0  0  0  0  0  0  0  0  0  0  0
  -50.9879    0.9016  -24.0474 C   0  0  0  0  0  0  0  0  0  0  0  0
  -50.4568    2.0948  -24.3806 C   0  0  0  0  0  0  0  0  0  0  0  0
  -51.9194    0.2649  -24.9673 C   0  0  0  0  0  0  0  0  0  0  0  0
  -50.4122    2.4754  -25.7847 C   0  0  0  0  0  0  0  0  0  0  0  0
  -51.9734    0.6753  -26.2461 C   0  0  0  0  0  0  0  0  0  0  0  0
  -52.7507   -0.7198  -24.4855 O   0  0  0  0  0  0  0  0  0  0  0  0
  -51.1352    1.7879  -26.6947 C   0  0  0  0  0  0  0  0  0  0  0  0
  -51.1500    2.1128  -28.1561 C   0  0  0  0  0  0  0  0  0  0  0  0
  -51.6722   -0.7246  -21.7141 H   0  0  0  0  0  0  0  0  0  0  0  0
  -48.7851    0.2733  -20.3676 H   0  0  0  0  0  0  0  0  0  0  0  0
  -48.9504    0.7984  -17.9440 H   0  0  0  0  0  0  0  0  0  0  0  0
  -52.6559    2.6628  -18.6890 H   0  0  0  0  0  0  0  0  0  0  0  0
  -52.7804    1.7104  -22.0770 H   0  0  0  0  0  0  0  0  0  0  0  0
  -50.0545    1.8599  -16.1310 H   0  0  0  0  0  0  0  0  0  0  0  0
  -51.7938    1.7508  -16.2581 H   0  0  0  0  0  0  0  0  0  0  0  0
  -50.9818    3.2488  -16.6449 H   0  0  0  0  0  0  0  0  0  0  0  0
  -50.0884    2.7272  -23.6531 H   0  0  0  0  0  0  0  0  0  0  0  0
  -49.8277    3.2711  -26.0850 H   0  0  0  0  0  0  0  0  0  0  0  0
  -52.6064    0.2055  -26.9121 H   0  0  0  0  0  0  0  0  0  0  0  0
  -52.6910   -0.9862  -23.5891 H   0  0  0  0  0  0  0  0  0  0  0  0
  -50.4982    2.9403  -28.3441 H   0  0  0  0  0  0  0  0  0  0  0  0
  -52.1453    2.3678  -28.4547 H   0  0  0  0  0  0  0  0  0  0  0  0
  -50.8170    1.2626  -28.7139 H   0  0  0  0  0  0  0  0  0  0  0  0
  1  4  1  0  0  0  0
  1 20  1  0  0  0  0
  2  1  1  0  0  0  0
  2 12  1  0  0  0  0
  2  3  2  0  0  0  0
  4  5  2  0  0  0  0
  5  7  1  0  0  0  0
  5 21  1  0  0  0  0
  6  4  1  0  0  0  0
  6  9  1  0  0  0  0
  7 10  2  0  0  0  0
  7 22  1  0  0  0  0
  8  6  2  0  0  0  0
  8 23  1  0  0  0  0
  9 24  1  0  0  0  0
 10  8  1  0  0  0  0
 10 11  1  0  0  0  0
 11 25  1  0  0  0  0
 11 26  1  0  0  0  0
 11 27  1  0  0  0  0
 12 13  2  0  0  0  0
 13 15  1  0  0  0  0
 13 28  1  0  0  0  0
 14 12  1  0  0  0  0
 14 17  1  0  0  0  0
 15 18  2  0  0  0  0
 15 29  1  0  0  0  0
 16 14  2  0  0  0  0
 16 30  1  0  0  0  0
 17 31  1  0  0  0  0
 18 16  1  0  0  0  0
 18 19  1  0  0  0  0
 19 32  1  0  0  0  0
 19 33  1  0  0  0  0
 19 34  1  0  0  0  0
M  END
>  <minimizedAffinity>
-8.18609

$$$$

 OpenBabel07052409263D

 30 31  0  0  0  0  0  0  0  0999 V2000
  -50.1357   -1.4461  -23.1208 N   0  0  0  0  0  0  0  0  0  0  0  0
  -49.6479   -1.2609  -24.3978 C   0  0  0  0  0  0  0  0  0  0  0  0
  -48.6904   -1.8694  -24.8632 O   0  0  0  0  0  0  0  0  0  0  0  0
  -50.4087   -0.2477  -25.1782 C   0  0  0  0  0  0  0  0  0  0  0  0
  -50.0925    1.0474  -24.9821 C   0  0  0  0  0  0  0  0  0  0  0  0
  -51.2898   -0.6181  -26.2765 C   0  0  0  0  0  0  0  0  0  0  0  0
  -50.4615    2.0392  -25.9794 C   0  0  0  0  0  0  0  0  0  0  0  0
  -51.6728    0.3095  -27.1748 C   0  0  0  0  0  0  0  0  0  0  0  0
  -51.7189   -1.9254  -26.3013 O   0  0  0  0  0  0  0  0  0  0  0  0
  -51.2171    1.6932  -27.0419 C   0  0  0  0  0  0  0  0  0  0  0  0
  -51.6281    2.6617  -28.1076 C   0  0  0  0  0  0  0  0  0  0  0  0
  -49.6413   -0.7021  -22.0751 C   0  0  0  0  0  0  0  0  0  0  0  0
  -48.4241   -0.9456  -21.5517 C   0  0  0  0  0  0  0  0  0  0  0  0
  -50.5037    0.2856  -21.4410 C   0  0  0  0  0  0  0  0  0  0  0  0
  -47.9634   -0.1946  -20.3935 C   0  0  0  0  0  0  0  0  0  0  0  0
  -50.0873    0.9727  -20.3649 C   0  0  0  0  0  0  0  0  0  0  0  0
  -51.7383    0.4918  -21.9449 F   0  0  0  0  0  0  0  0  0  0  0  0
  -48.7605    0.7283  -19.8245 C   0  0  0  0  0  0  0  0  0  0  0  0
  -50.8406   -2.1136  -22.9573 H   0  0  0  0  0  0  0  0  0  0  0  0
  -49.5904    1.3343  -24.1274 H   0  0  0  0  0  0  0  0  0  0  0  0
  -50.1429    3.0151  -25.8735 H   0  0  0  0  0  0  0  0  0  0  0  0
  -52.2891    0.0435  -27.9586 H   0  0  0  0  0  0  0  0  0  0  0  0
  -51.4197   -2.5291  -25.6502 H   0  0  0  0  0  0  0  0  0  0  0  0
  -51.2277    3.6286  -27.8846 H   0  0  0  0  0  0  0  0  0  0  0  0
  -52.6959    2.7180  -28.1458 H   0  0  0  0  0  0  0  0  0  0  0  0
  -51.2544    2.3305  -29.0539 H   0  0  0  0  0  0  0  0  0  0  0  0
  -47.8172   -1.6662  -21.9729 H   0  0  0  0  0  0  0  0  0  0  0  0
  -47.0226   -0.3703  -20.0074 H   0  0  0  0  0  0  0  0  0  0  0  0
  -50.7064    1.6708  -19.9239 H   0  0  0  0  0  0  0  0  0  0  0  0
  -48.4300    1.2619  -19.0053 H   0  0  0  0  0  0  0  0  0  0  0  0
  1 12  1  0  0  0  0
  1 19  1  0  0  0  0
  2  1  1  0  0  0  0
  2  4  1  0  0  0  0
  2  3  2  0  0  0  0
  4  5  2  0  0  0  0
  5  7  1  0  0  0  0
  5 20  1  0  0  0  0
  6  4  1  0  0  0  0
  6  9  1  0  0  0  0
  7 10  2  0  0  0  0
  7 21  1  0  0  0  0
  8  6  2  0  0  0  0
  8 22  1  0  0  0  0
  9 23  1  0  0  0  0
 10  8  1  0  0  0  0
 10 11  1  0  0  0  0
 11 24  1  0  0  0  0
 11 25  1  0  0  0  0
 11 26  1  0  0  0  0
 12 13  2  0  0  0  0
 13 15  1  0  0  0  0
 13 27  1  0  0  0  0
 14 12  1  0  0  0  0
 14 17  1  0  0  0  0
 15 18  2  0  0  0  0
 15 28  1  0  0  0  0
 16 14  2  0  0  0  0
 16 29  1  0  0  0  0
 18 16  1  0  0  0  0
 18 30  1  0  0  0  0
M  END
>  <minimizedAffinity>
-8.04794

$$$$

 OpenBabel07052409263D

 30 31  0  0  0  0  0  0  0  0999 V2000
  -51.8442   -0.1684  -23.4338 N   0  0  0  0  0  0  0  0  0  0  0  0
  -50.9098   -0.5526  -22.5006 C   0  0  0  0  0  0  0  0  0  0  0  0
  -50.3547   -1.6471  -22.5047 O   0  0  0  0  0  0  0  0  0  0  0  0
  -50.7203    0.3953  -21.3762 C   0  0  0  0  0  0  0  0  0  0  0  0
  -51.7563    1.1511  -20.9658 C   0  0  0  0  0  0  0  0  0  0  0  0
  -49.5036    0.3682  -20.5777 C   0  0  0  0  0  0  0  0  0  0  0  0
  -51.8261    1.5564  -19.5713 C   0  0  0  0  0  0  0  0  0  0  0  0
  -49.5262    0.8290  -19.3148 C   0  0  0  0  0  0  0  0  0  0  0  0
  -48.3379   -0.0693  -21.1668 O   0  0  0  0  0  0  0  0  0  0  0  0
  -50.7567    1.3969  -18.7634 C   0  0  0  0  0  0  0  0  0  0  0  0
  -50.7415    1.8046  -17.3245 C   0  0  0  0  0  0  0  0  0  0  0  0
  -51.4676    0.5190  -24.5626 C   0  0  0  0  0  0  0  0  0  0  0  0
  -51.9549    0.2279  -25.7850 C   0  0  0  0  0  0  0  0  0  0  0  0
  -50.6594    1.7155  -24.3688 C   0  0  0  0  0  0  0  0  0  0  0  0
  -51.6783    1.1124  -26.9070 C   0  0  0  0  0  0  0  0  0  0  0  0
  -50.4036    2.5311  -25.4087 C   0  0  0  0  0  0  0  0  0  0  0  0
  -50.9315    2.2112  -26.7172 C   0  0  0  0  0  0  0  0  0  0  0  0
  -50.6464    3.0387  -27.7406 F   0  0  0  0  0  0  0  0  0  0  0  0
  -52.7932   -0.3882  -23.2916 H   0  0  0  0  0  0  0  0  0  0  0  0
  -52.4904    1.4386  -21.6317 H   0  0  0  0  0  0  0  0  0  0  0  0
  -52.6960    1.9673  -19.1980 H   0  0  0  0  0  0  0  0  0  0  0  0
  -48.6746    0.7821  -18.7337 H   0  0  0  0  0  0  0  0  0  0  0  0
  -48.3488   -0.3859  -22.0486 H   0  0  0  0  0  0  0  0  0  0  0  0
  -51.6986    2.2004  -17.0558 H   0  0  0  0  0  0  0  0  0  0  0  0
  -49.9912    2.5524  -17.1736 H   0  0  0  0  0  0  0  0  0  0  0  0
  -50.5238    0.9527  -16.7147 H   0  0  0  0  0  0  0  0  0  0  0  0
  -52.5238   -0.6216  -25.9252 H   0  0  0  0  0  0  0  0  0  0  0  0
  -50.2829    1.9379  -23.4340 H   0  0  0  0  0  0  0  0  0  0  0  0
  -52.0543    0.8959  -27.8434 H   0  0  0  0  0  0  0  0  0  0  0  0
  -49.8336    3.3806  -25.2732 H   0  0  0  0  0  0  0  0  0  0  0  0
  1 12  1  0  0  0  0
  1 19  1  0  0  0  0
  2  1  1  0  0  0  0
  2  4  1  0  0  0  0
  2  3  2  0  0  0  0
  4  5  2  0  0  0  0
  5  7  1  0  0  0  0
  5 20  1  0  0  0  0
  6  4  1  0  0  0  0
  6  9  1  0  0  0  0
  7 10  2  0  0  0  0
  7 21  1  0  0  0  0
  8  6  2  0  0  0  0
  8 22  1  0  0  0  0
  9 23  1  0  0  0  0
 10  8  1  0  0  0  0
 10 11  1  0  0  0  0
 11 24  1  0  0  0  0
 11 25  1  0  0  0  0
 11 26  1  0  0  0  0
 12 13  2  0  0  0  0
 13 15  1  0  0  0  0
 13 27  1  0  0  0  0
 14 12  1  0  0  0  0
 14 28  1  0  0  0  0
 15 17  2  0  0  0  0
 15 29  1  0  0  0  0
 16 14  2  0  0  0  0
 16 30  1  0  0  0  0
 17 16  1  0  0  0  0
 17 18  1  0  0  0  0
M  END
>  <minimizedAffinity>
-7.64816

$$$$

 OpenBabel07052409263D

 30 31  0  0  0  0  0  0  0  0999 V2000
  -49.7888    0.0703  -22.6584 N   0  0  0  0  0  0  0  0  0  0  0  0
  -50.0328   -0.7411  -23.7448 C   0  0  0  0  0  0  0  0  0  0  0  0
  -50.0007   -1.9658  -23.7016 O   0  0  0  0  0  0  0  0  0  0  0  0
  -50.3173    0.0172  -24.9867 C   0  0  0  0  0  0  0  0  0  0  0  0
  -49.8729    1.2882  -25.0466 C   0  0  0  0  0  0  0  0  0  0  0  0
  -51.2189   -0.4870  -26.0111 C   0  0  0  0  0  0  0  0  0  0  0  0
  -50.3615    2.1786  -26.0870 C   0  0  0  0  0  0  0  0  0  0  0  0
  -51.6556    0.3334  -26.9861 C   0  0  0  0  0  0  0  0  0  0  0  0
  -51.5637   -1.8149  -25.9257 O   0  0  0  0  0  0  0  0  0  0  0  0
  -51.2221    1.7299  -27.0235 C   0  0  0  0  0  0  0  0  0  0  0  0
  -51.7677    2.5937  -28.1184 C   0  0  0  0  0  0  0  0  0  0  0  0
  -50.7986    0.3719  -21.7773 C   0  0  0  0  0  0  0  0  0  0  0  0
  -51.8642    1.0914  -22.1762 C   0  0  0  0  0  0  0  0  0  0  0  0
  -50.5643    0.1628  -20.3550 C   0  0  0  0  0  0  0  0  0  0  0  0
  -52.6760    1.7946  -21.1965 C   0  0  0  0  0  0  0  0  0  0  0  0
  -51.3438    0.7770  -19.4464 C   0  0  0  0  0  0  0  0  0  0  0  0
  -52.4250    1.6433  -19.8839 C   0  0  0  0  0  0  0  0  0  0  0  0
  -48.8863    0.4357  -22.5128 H   0  0  0  0  0  0  0  0  0  0  0  0
  -49.1868    1.6289  -24.3550 H   0  0  0  0  0  0  0  0  0  0  0  0
  -50.0474    3.1614  -26.1090 H   0  0  0  0  0  0  0  0  0  0  0  0
  -52.2986   -0.0247  -27.7095 H   0  0  0  0  0  0  0  0  0  0  0  0
  -51.2310   -2.3412  -25.2255 H   0  0  0  0  0  0  0  0  0  0  0  0
  -51.3695    3.5824  -28.0246 H   0  0  0  0  0  0  0  0  0  0  0  0
  -52.8346    2.6305  -28.0456 H   0  0  0  0  0  0  0  0  0  0  0  0
  -51.4889    2.1854  -29.0673 H   0  0  0  0  0  0  0  0  0  0  0  0
  -52.1050    1.1438  -23.1783 H   0  0  0  0  0  0  0  0  0  0  0  0
  -49.7999   -0.4569  -20.0439 H   0  0  0  0  0  0  0  0  0  0  0  0
  -53.4442    2.4093  -21.5079 H   0  0  0  0  0  0  0  0  0  0  0  0
  -51.1737    0.6327  -18.4388 H   0  0  0  0  0  0  0  0  0  0  0  0
  -53.0003    2.1425  -19.1876 H   0  0  0  0  0  0  0  0  0  0  0  0
  1 12  1  0  0  0  0
  1 18  1  0  0  0  0
  2  1  1  0  0  0  0
  2  4  1  0  0  0  0
  2  3  2  0  0  0  0
  4  5  2  0  0  0  0
  5  7  1  0  0  0  0
  5 19  1  0  0  0  0
  6  4  1  0  0  0  0
  6  9  1  0  0  0  0
  7 10  2  0  0  0  0
  7 20  1  0  0  0  0
  8  6  2  0  0  0  0
  8 21  1  0  0  0  0
  9 22  1  0  0  0  0
 10  8  1  0  0  0  0
 10 11  1  0  0  0  0
 11 23  1  0  0  0  0
 11 24  1  0  0  0  0
 11 25  1  0  0  0  0
 12 13  2  0  0  0  0
 13 15  1  0  0  0  0
 13 26  1  0  0  0  0
 14 12  1  0  0  0  0
 14 27  1  0  0  0  0
 15 17  2  0  0  0  0
 15 28  1  0  0  0  0
 16 14  2  0  0  0  0
 16 29  1  0  0  0  0
 17 16  1  0  0  0  0
 17 30  1  0  0  0  0
M  END
>  <minimizedAffinity>
-7.66510

$$$$

 OpenBabel07052409263D

 30 31  0  0  0  0  0  0  0  0999 V2000
  -51.3060    0.2068  -22.2857 N   0  0  0  0  0  0  0  0  0  0  0  0
  -51.8028    1.1453  -21.4075 C   0  0  0  0  0  0  0  0  0  0  0  0
  -52.9391    1.6091  -21.4463 O   0  0  0  0  0  0  0  0  0  0  0  0
  -50.8994    1.4844  -20.2797 C   0  0  0  0  0  0  0  0  0  0  0  0
  -49.6177    1.0717  -20.3098 C   0  0  0  0  0  0  0  0  0  0  0  0
  -51.4532    1.9767  -19.0259 C   0  0  0  0  0  0  0  0  0  0  0  0
  -48.9725    0.6861  -19.0638 C   0  0  0  0  0  0  0  0  0  0  0  0
  -50.8128    1.7245  -17.8713 C   0  0  0  0  0  0  0  0  0  0  0  0
  -52.6044    2.7306  -19.0656 O   0  0  0  0  0  0  0  0  0  0  0  0
  -49.5452    0.9937  -17.8806 C   0  0  0  0  0  0  0  0  0  0  0  0
  -48.9407    0.6480  -16.5553 C   0  0  0  0  0  0  0  0  0  0  0  0
  -51.0221    0.5482  -23.5882 C   0  0  0  0  0  0  0  0  0  0  0  0
  -50.5659    1.7755  -23.9110 C   0  0  0  0  0  0  0  0  0  0  0  0
  -51.4105   -0.3692  -24.6543 C   0  0  0  0  0  0  0  0  0  0  0  0
  -50.4420    2.1635  -25.3087 C   0  0  0  0  0  0  0  0  0  0  0  0
  -51.3028   -0.0144  -25.9445 C   0  0  0  0  0  0  0  0  0  0  0  0
  -51.8977   -1.5823  -24.3210 F   0  0  0  0  0  0  0  0  0  0  0  0
  -50.7945    1.2989  -26.2735 C   0  0  0  0  0  0  0  0  0  0  0  0
  -50.6856    1.6348  -27.5732 F   0  0  0  0  0  0  0  0  0  0  0  0
  -51.1528   -0.7160  -21.9786 H   0  0  0  0  0  0  0  0  0  0  0  0
  -49.1014    1.0296  -21.2024 H   0  0  0  0  0  0  0  0  0  0  0  0
  -48.0754    0.1765  -19.0847 H   0  0  0  0  0  0  0  0  0  0  0  0
  -51.2156    2.0466  -16.9774 H   0  0  0  0  0  0  0  0  0  0  0  0
  -53.0311    2.8914  -19.8841 H   0  0  0  0  0  0  0  0  0  0  0  0
  -48.0234    0.1189  -16.7088 H   0  0  0  0  0  0  0  0  0  0  0  0
  -49.6197    0.0321  -16.0034 H   0  0  0  0  0  0  0  0  0  0  0  0
  -48.7470    1.5459  -16.0065 H   0  0  0  0  0  0  0  0  0  0  0  0
  -50.3043    2.4404  -23.1664 H   0  0  0  0  0  0  0  0  0  0  0  0
  -50.0847    3.0993  -25.5569 H   0  0  0  0  0  0  0  0  0  0  0  0
  -51.5791   -0.6703  -26.6918 H   0  0  0  0  0  0  0  0  0  0  0  0
  1 12  1  0  0  0  0
  1 20  1  0  0  0  0
  2  1  1  0  0  0  0
  2  4  1  0  0  0  0
  2  3  2  0  0  0  0
  4  5  2  0  0  0  0
  5  7  1  0  0  0  0
  5 21  1  0  0  0  0
  6  4  1  0  0  0  0
  6  9  1  0  0  0  0
  7 10  2  0  0  0  0
  7 22  1  0  0  0  0
  8  6  2  0  0  0  0
  8 23  1  0  0  0  0
  9 24  1  0  0  0  0
 10  8  1  0  0  0  0
 10 11  1  0  0  0  0
 11 25  1  0  0  0  0
 11 26  1  0  0  0  0
 11 27  1  0  0  0  0
 12 13  2  0  0  0  0
 13 15  1  0  0  0  0
 13 28  1  0  0  0  0
 14 12  1  0  0  0  0
 14 17  1  0  0  0  0
 15 18  2  0  0  0  0
 15 29  1  0  0  0  0
 16 14  2  0  0  0  0
 16 30  1  0  0  0  0
 18 16  1  0  0  0  0
 18 19  1  0  0  0  0
M  END
>  <minimizedAffinity>
-8.36061

$$$$

 OpenBabel07052409263D

 33 34  0  0  0  0  0  0  0  0999 V2000
  -49.0587   -1.9344  -23.5446 C   0  0  0  0  0  0  0  0  0  0  0  0
  -50.0420   -2.1942  -24.4638 N   0  0  0  0  0  0  0  0  0  0  0  0
  -47.9102   -1.6170  -23.8359 O   0  0  0  0  0  0  0  0  0  0  0  0
  -51.0073   -1.2376  -24.6070 C   0  0  0  0  0  0  0  0  0  0  0  0
  -52.0774   -1.2771  -24.0082 O   0  0  0  0  0  0  0  0  0  0  0  0
  -49.4862   -2.1458  -22.1349 C   0  0  0  0  0  0  0  0  0  0  0  0
  -49.4356   -1.0817  -21.3095 C   0  0  0  0  0  0  0  0  0  0  0  0
  -49.6270   -3.4834  -21.5813 C   0  0  0  0  0  0  0  0  0  0  0  0
  -49.1994   -1.2831  -19.8828 C   0  0  0  0  0  0  0  0  0  0  0  0
  -49.4922   -3.6759  -20.2562 C   0  0  0  0  0  0  0  0  0  0  0  0
  -49.9377   -4.4793  -22.4763 O   0  0  0  0  0  0  0  0  0  0  0  0
  -48.8613    0.3370  -18.6533 I   0  0  0  0  0  0  0  0  0  0  0  0
  -49.2258   -2.5378  -19.3858 C   0  0  0  0  0  0  0  0  0  0  0  0
  -50.7140   -0.2127  -25.6376 C   0  0  0  0  0  0  0  0  0  0  0  0
  -50.3617    1.0097  -25.1930 C   0  0  0  0  0  0  0  0  0  0  0  0
  -51.0954   -0.3845  -27.0299 C   0  0  0  0  0  0  0  0  0  0  0  0
  -50.6965    2.1818  -25.9859 C   0  0  0  0  0  0  0  0  0  0  0  0
  -51.3288    0.6965  -27.7987 C   0  0  0  0  0  0  0  0  0  0  0  0
  -51.1868   -1.6783  -27.4813 O   0  0  0  0  0  0  0  0  0  0  0  0
  -51.1649    2.0409  -27.2434 C   0  0  0  0  0  0  0  0  0  0  0  0
  -51.5229    3.1986  -28.1230 C   0  0  0  0  0  0  0  0  0  0  0  0
  -50.0522   -3.0249  -24.9921 H   0  0  0  0  0  0  0  0  0  0  0  0
  -49.5632   -0.1286  -21.6842 H   0  0  0  0  0  0  0  0  0  0  0  0
  -49.5770   -4.6244  -19.8585 H   0  0  0  0  0  0  0  0  0  0  0  0
  -50.0177   -4.2811  -23.3886 H   0  0  0  0  0  0  0  0  0  0  0  0
  -49.0557   -2.6926  -18.3798 H   0  0  0  0  0  0  0  0  0  0  0  0
  -49.8588    1.1131  -24.2978 H   0  0  0  0  0  0  0  0  0  0  0  0
  -50.5754    3.1251  -25.5852 H   0  0  0  0  0  0  0  0  0  0  0  0
  -51.6235    0.5768  -28.7804 H   0  0  0  0  0  0  0  0  0  0  0  0
  -51.0125   -2.3912  -26.8987 H   0  0  0  0  0  0  0  0  0  0  0  0
  -51.3558    4.1135  -27.5940 H   0  0  0  0  0  0  0  0  0  0  0  0
  -52.5540    3.1302  -28.4005 H   0  0  0  0  0  0  0  0  0  0  0  0
  -50.9147    3.1793  -29.0031 H   0  0  0  0  0  0  0  0  0  0  0  0
  1  6  1  0  0  0  0
  1  2  1  0  0  0  0
  1  3  2  0  0  0  0
  2 22  1  0  0  0  0
  4  2  1  0  0  0  0
  4 14  1  0  0  0  0
  4  5  2  0  0  0  0
  6  7  2  0  0  0  0
  7  9  1  0  0  0  0
  7 23  1  0  0  0  0
  8  6  1  0  0  0  0
  8 11  1  0  0  0  0
  9 12  1  0  0  0  0
  9 13  2  0  0  0  0
 10  8  2  0  0  0  0
 10 24  1  0  0  0  0
 11 25  1  0  0  0  0
 13 10  1  0  0  0  0
 13 26  1  0  0  0  0
 14 15  2  0  0  0  0
 15 17  1  0  0  0  0
 15 27  1  0  0  0  0
 16 14  1  0  0  0  0
 16 19  1  0  0  0  0
 17 20  2  0  0  0  0
 17 28  1  0  0  0  0
 18 16  2  0  0  0  0
 18 29  1  0  0  0  0
 19 30  1  0  0  0  0
 20 18  1  0  0  0  0
 20 21  1  0  0  0  0
 21 31  1  0  0  0  0
 21 32  1  0  0  0  0
 21 33  1  0  0  0  0
M  END
>  <minimizedAffinity>
-7.96281

$$$$

 OpenBabel07052409263D

 32 33  0  0  0  0  0  0  0  0999 V2000
  -49.4365   -0.2222  -21.4124 C   0  0  0  0  0  0  0  0  0  0  0  0
  -49.9535   -1.4838  -21.3500 N   0  0  0  0  0  0  0  0  0  0  0  0
  -48.2455    0.0255  -21.2618 O   0  0  0  0  0  0  0  0  0  0  0  0
  -50.0251   -2.1692  -22.5341 C   0  0  0  0  0  0  0  0  0  0  0  0
  -51.0369   -2.2286  -23.2246 O   0  0  0  0  0  0  0  0  0  0  0  0
  -48.7687   -2.8840  -22.8974 C   0  0  0  0  0  0  0  0  0  0  0  0
  -48.1213   -3.5404  -21.9150 C   0  0  0  0  0  0  0  0  0  0  0  0
  -48.1018   -2.6638  -24.1738 C   0  0  0  0  0  0  0  0  0  0  0  0
  -46.6970   -3.8052  -22.0409 C   0  0  0  0  0  0  0  0  0  0  0  0
  -46.7967   -2.9645  -24.3144 C   0  0  0  0  0  0  0  0  0  0  0  0
  -48.8901   -2.1862  -25.1966 O   0  0  0  0  0  0  0  0  0  0  0  0
  -46.0486   -3.5272  -23.1904 C   0  0  0  0  0  0  0  0  0  0  0  0
  -44.5848   -3.7745  -23.3878 C   0  0  0  0  0  0  0  0  0  0  0  0
  -50.4497    0.8516  -21.5587 C   0  0  0  0  0  0  0  0  0  0  0  0
  -51.0300    1.2803  -20.4187 C   0  0  0  0  0  0  0  0  0  0  0  0
  -51.0724    1.1628  -22.8423 C   0  0  0  0  0  0  0  0  0  0  0  0
  -52.4454    1.6099  -20.4299 C   0  0  0  0  0  0  0  0  0  0  0  0
  -52.3551    1.5800  -22.8542 C   0  0  0  0  0  0  0  0  0  0  0  0
  -50.0612    1.0541  -24.4060 Br  0  0  0  0  0  0  0  0  0  0  0  0
  -53.0847    1.7467  -21.6055 C   0  0  0  0  0  0  0  0  0  0  0  0
  -50.2580   -1.8793  -20.5014 H   0  0  0  0  0  0  0  0  0  0  0  0
  -48.6343   -3.8541  -21.0763 H   0  0  0  0  0  0  0  0  0  0  0  0
  -46.1786   -4.2087  -21.2450 H   0  0  0  0  0  0  0  0  0  0  0  0
  -46.3237   -2.7977  -25.2163 H   0  0  0  0  0  0  0  0  0  0  0  0
  -49.7938   -1.9936  -25.0408 H   0  0  0  0  0  0  0  0  0  0  0  0
  -44.1682   -4.1842  -22.4914 H   0  0  0  0  0  0  0  0  0  0  0  0
  -44.0952   -2.8517  -23.6193 H   0  0  0  0  0  0  0  0  0  0  0  0
  -44.4451   -4.4643  -24.1937 H   0  0  0  0  0  0  0  0  0  0  0  0
  -50.4773    1.3728  -19.5521 H   0  0  0  0  0  0  0  0  0  0  0  0
  -52.9563    1.7381  -19.5424 H   0  0  0  0  0  0  0  0  0  0  0  0
  -52.8213    1.7819  -23.7525 H   0  0  0  0  0  0  0  0  0  0  0  0
  -54.0922    1.9698  -21.6222 H   0  0  0  0  0  0  0  0  0  0  0  0
  1 14  1  0  0  0  0
  1  2  1  0  0  0  0
  1  3  2  0  0  0  0
  2 21  1  0  0  0  0
  4  2  1  0  0  0  0
  4  6  1  0  0  0  0
  4  5  2  0  0  0  0
  6  7  2  0  0  0  0
  7  9  1  0  0  0  0
  7 22  1  0  0  0  0
  8  6  1  0  0  0  0
  8 11  1  0  0  0  0
  9 12  2  0  0  0  0
  9 23  1  0  0  0  0
 10  8  2  0  0  0  0
 10 24  1  0  0  0  0
 11 25  1  0  0  0  0
 12 10  1  0  0  0  0
 12 13  1  0  0  0  0
 13 26  1  0  0  0  0
 13 27  1  0  0  0  0
 13 28  1  0  0  0  0
 14 15  2  0  0  0  0
 15 17  1  0  0  0  0
 15 29  1  0  0  0  0
 16 14  1  0  0  0  0
 16 19  1  0  0  0  0
 17 20  2  0  0  0  0
 17 30  1  0  0  0  0
 18 16  2  0  0  0  0
 18 31  1  0  0  0  0
 20 18  1  0  0  0  0
 20 32  1  0  0  0  0
M  END
>  <minimizedAffinity>
-7.35165

$$$$

 OpenBabel07052409263D

 35 36  0  0  0  0  0  0  0  0999 V2000
  -51.5775    1.3845  -21.6284 C   0  0  0  0  0  0  0  0  0  0  0  0
  -50.4222    1.0805  -22.2949 N   0  0  0  0  0  0  0  0  0  0  0  0
  -52.5940    1.8200  -22.1570 O   0  0  0  0  0  0  0  0  0  0  0  0
  -50.5110   -0.0121  -23.1074 C   0  0  0  0  0  0  0  0  0  0  0  0
  -50.5421   -1.1661  -22.6957 O   0  0  0  0  0  0  0  0  0  0  0  0
  -50.5047    0.3363  -24.5474 C   0  0  0  0  0  0  0  0  0  0  0  0
  -49.9854    1.5321  -24.8876 C   0  0  0  0  0  0  0  0  0  0  0  0
  -51.3230   -0.3925  -25.5037 C   0  0  0  0  0  0  0  0  0  0  0  0
  -50.4467    2.1995  -26.0943 C   0  0  0  0  0  0  0  0  0  0  0  0
  -51.7005    0.1983  -26.6540 C   0  0  0  0  0  0  0  0  0  0  0  0
  -51.6442   -1.6864  -25.1683 O   0  0  0  0  0  0  0  0  0  0  0  0
  -51.2741    1.5662  -26.9512 C   0  0  0  0  0  0  0  0  0  0  0  0
  -51.7827    2.1901  -28.2139 C   0  0  0  0  0  0  0  0  0  0  0  0
  -51.4865    1.2053  -20.1554 C   0  0  0  0  0  0  0  0  0  0  0  0
  -50.7946    0.1535  -19.6780 C   0  0  0  0  0  0  0  0  0  0  0  0
  -51.8882    2.2765  -19.2569 C   0  0  0  0  0  0  0  0  0  0  0  0
  -50.2168    0.2232  -18.3456 C   0  0  0  0  0  0  0  0  0  0  0  0
  -51.4115    2.3058  -17.9991 C   0  0  0  0  0  0  0  0  0  0  0  0
  -50.5076    1.2573  -17.5293 C   0  0  0  0  0  0  0  0  0  0  0  0
  -49.9595    1.3894  -16.1420 C   0  0  0  0  0  0  0  0  0  0  0  0
  -49.5956    1.6062  -22.1965 H   0  0  0  0  0  0  0  0  0  0  0  0
  -49.2641    1.9720  -24.2949 H   0  0  0  0  0  0  0  0  0  0  0  0
  -50.1392    3.1637  -26.2965 H   0  0  0  0  0  0  0  0  0  0  0  0
  -52.2914   -0.3147  -27.3268 H   0  0  0  0  0  0  0  0  0  0  0  0
  -51.3535   -2.0450  -24.3529 H   0  0  0  0  0  0  0  0  0  0  0  0
  -51.3941    3.1831  -28.3028 H   0  0  0  0  0  0  0  0  0  0  0  0
  -52.8518    2.2265  -28.1883 H   0  0  0  0  0  0  0  0  0  0  0  0
  -51.4657    1.6066  -29.0529 H   0  0  0  0  0  0  0  0  0  0  0  0
  -50.6754   -0.6951  -20.2530 H   0  0  0  0  0  0  0  0  0  0  0  0
  -52.5360    3.0108  -19.5828 H   0  0  0  0  0  0  0  0  0  0  0  0
  -49.5807   -0.5225  -18.0225 H   0  0  0  0  0  0  0  0  0  0  0  0
  -51.6850    3.0714  -17.3635 H   0  0  0  0  0  0  0  0  0  0  0  0
  -49.3178    0.5594  -15.9315 H   0  0  0  0  0  0  0  0  0  0  0  0
  -50.7665    1.4035  -15.4395 H   0  0  0  0  0  0  0  0  0  0  0  0
  -49.4025    2.2997  -16.0637 H   0  0  0  0  0  0  0  0  0  0  0  0
  1 14  1  0  0  0  0
  1  2  1  0  0  0  0
  1  3  2  0  0  0  0
  2 21  1  0  0  0  0
  4  2  1  0  0  0  0
  4  6  1  0  0  0  0
  4  5  2  0  0  0  0
  6  7  2  0  0  0  0
  7  9  1  0  0  0  0
  7 22  1  0  0  0  0
  8  6  1  0  0  0  0
  8 11  1  0  0  0  0
  9 12  2  0  0  0  0
  9 23  1  0  0  0  0
 10  8  2  0  0  0  0
 10 24  1  0  0  0  0
 11 25  1  0  0  0  0
 12 10  1  0  0  0  0
 12 13  1  0  0  0  0
 13 26  1  0  0  0  0
 13 27  1  0  0  0  0
 13 28  1  0  0  0  0
 14 15  2  0  0  0  0
 15 17  1  0  0  0  0
 15 29  1  0  0  0  0
 16 14  1  0  0  0  0
 16 30  1  0  0  0  0
 17 19  2  0  0  0  0
 17 31  1  0  0  0  0
 18 16  2  0  0  0  0
 18 32  1  0  0  0  0
 19 18  1  0  0  0  0
 19 20  1  0  0  0  0
 20 33  1  0  0  0  0
 20 34  1  0  0  0  0
 20 35  1  0  0  0  0
M  END
>  <minimizedAffinity>
-8.36909

$$$$

 OpenBabel07052409263D

 32 33  0  0  0  0  0  0  0  0999 V2000
  -51.2954    0.5340  -20.8607 C   0  0  0  0  0  0  0  0  0  0  0  0
  -51.5784    1.7224  -21.4794 N   0  0  0  0  0  0  0  0  0  0  0  0
  -52.0210    0.0066  -20.0268 O   0  0  0  0  0  0  0  0  0  0  0  0
  -52.4546    1.6964  -22.5307 C   0  0  0  0  0  0  0  0  0  0  0  0
  -53.5753    2.1897  -22.4592 O   0  0  0  0  0  0  0  0  0  0  0  0
  -51.8881    1.1778  -23.8031 C   0  0  0  0  0  0  0  0  0  0  0  0
  -50.6796    1.6525  -24.1667 C   0  0  0  0  0  0  0  0  0  0  0  0
  -52.7457    0.5663  -24.8075 C   0  0  0  0  0  0  0  0  0  0  0  0
  -50.3558    1.7980  -25.5770 C   0  0  0  0  0  0  0  0  0  0  0  0
  -52.4195    0.6409  -26.1117 C   0  0  0  0  0  0  0  0  0  0  0  0
  -53.8528   -0.0936  -24.3356 O   0  0  0  0  0  0  0  0  0  0  0  0
  -51.1894    1.3172  -26.5221 C   0  0  0  0  0  0  0  0  0  0  0  0
  -50.9211    1.4320  -27.9909 C   0  0  0  0  0  0  0  0  0  0  0  0
  -49.9565   -0.0146  -21.1932 C   0  0  0  0  0  0  0  0  0  0  0  0
  -48.8970    0.5641  -20.5935 C   0  0  0  0  0  0  0  0  0  0  0  0
  -49.7824   -1.2925  -21.8718 C   0  0  0  0  0  0  0  0  0  0  0  0
  -47.7304   -0.2429  -20.2767 C   0  0  0  0  0  0  0  0  0  0  0  0
  -48.6564   -2.0027  -21.6660 C   0  0  0  0  0  0  0  0  0  0  0  0
  -50.9928   -1.8635  -22.9571 Cl  0  0  0  0  0  0  0  0  0  0  0  0
  -47.6166   -1.4808  -20.7912 C   0  0  0  0  0  0  0  0  0  0  0  0
  -51.1667    2.5647  -21.1790 H   0  0  0  0  0  0  0  0  0  0  0  0
  -49.9870    1.9116  -23.4469 H   0  0  0  0  0  0  0  0  0  0  0  0
  -49.4828    2.2721  -25.8564 H   0  0  0  0  0  0  0  0  0  0  0  0
  -53.0382    0.2204  -26.8226 H   0  0  0  0  0  0  0  0  0  0  0  0
  -54.0302   -0.1125  -23.4158 H   0  0  0  0  0  0  0  0  0  0  0  0
  -49.9948    1.9449  -28.1452 H   0  0  0  0  0  0  0  0  0  0  0  0
  -51.7138    1.9794  -28.4566 H   0  0  0  0  0  0  0  0  0  0  0  0
  -50.8629    0.4537  -28.4204 H   0  0  0  0  0  0  0  0  0  0  0  0
  -48.9140    1.5696  -20.3617 H   0  0  0  0  0  0  0  0  0  0  0  0
  -46.9928    0.1319  -19.6599 H   0  0  0  0  0  0  0  0  0  0  0  0
  -48.5310   -2.9167  -22.1285 H   0  0  0  0  0  0  0  0  0  0  0  0
  -46.7927   -2.0599  -20.5658 H   0  0  0  0  0  0  0  0  0  0  0  0
  1 14  1  0  0  0  0
  1  2  1  0  0  0  0
  1  3  2  0  0  0  0
  2 21  1  0  0  0  0
  4  2  1  0  0  0  0
  4  6  1  0  0  0  0
  4  5  2  0  0  0  0
  6  7  2  0  0  0  0
  7  9  1  0  0  0  0
  7 22  1  0  0  0  0
  8  6  1  0  0  0  0
  8 11  1  0  0  0  0
  9 12  2  0  0  0  0
  9 23  1  0  0  0  0
 10  8  2  0  0  0  0
 10 24  1  0  0  0  0
 11 25  1  0  0  0  0
 12 10  1  0  0  0  0
 12 13  1  0  0  0  0
 13 26  1  0  0  0  0
 13 27  1  0  0  0  0
 13 28  1  0  0  0  0
 14 15  2  0  0  0  0
 15 17  1  0  0  0  0
 15 29  1  0  0  0  0
 16 14  1  0  0  0  0
 16 19  1  0  0  0  0
 17 20  2  0  0  0  0
 17 30  1  0  0  0  0
 18 16  2  0  0  0  0
 18 31  1  0  0  0  0
 20 18  1  0  0  0  0
 20 32  1  0  0  0  0
M  END
>  <minimizedAffinity>
-7.32578

$$$$

 OpenBabel07052409263D

 32 33  0  0  0  0  0  0  0  0999 V2000
  -49.8844   -0.9142  -22.3161 C   0  0  0  0  0  0  0  0  0  0  0  0
  -48.9475   -0.7736  -23.3069 N   0  0  0  0  0  0  0  0  0  0  0  0
  -50.6702   -1.8449  -22.2057 O   0  0  0  0  0  0  0  0  0  0  0  0
  -49.3218   -1.0594  -24.5902 C   0  0  0  0  0  0  0  0  0  0  0  0
  -48.7771   -1.9388  -25.2507 O   0  0  0  0  0  0  0  0  0  0  0  0
  -50.2886   -0.1259  -25.2165 C   0  0  0  0  0  0  0  0  0  0  0  0
  -50.1373    1.1955  -25.0032 C   0  0  0  0  0  0  0  0  0  0  0  0
  -51.2120   -0.5777  -26.2463 C   0  0  0  0  0  0  0  0  0  0  0  0
  -50.5343    2.1292  -26.0466 C   0  0  0  0  0  0  0  0  0  0  0  0
  -51.6568    0.2936  -27.1682 C   0  0  0  0  0  0  0  0  0  0  0  0
  -51.6521   -1.8807  -26.2140 O   0  0  0  0  0  0  0  0  0  0  0  0
  -51.2584    1.7000  -27.1022 C   0  0  0  0  0  0  0  0  0  0  0  0
  -51.7106    2.5962  -28.2130 C   0  0  0  0  0  0  0  0  0  0  0  0
  -49.8121    0.1891  -21.3254 C   0  0  0  0  0  0  0  0  0  0  0  0
  -50.7671    1.1384  -21.4050 C   0  0  0  0  0  0  0  0  0  0  0  0
  -49.0703    0.0238  -20.0809 C   0  0  0  0  0  0  0  0  0  0  0  0
  -51.2792    1.7421  -20.1837 C   0  0  0  0  0  0  0  0  0  0  0  0
  -49.4880    0.6486  -18.9634 C   0  0  0  0  0  0  0  0  0  0  0  0
  -47.6297   -0.9232  -20.0703 Cl  0  0  0  0  0  0  0  0  0  0  0  0
  -50.6638    1.5028  -19.0113 C   0  0  0  0  0  0  0  0  0  0  0  0
  -51.2237    2.2137  -17.5484 Cl  0  0  0  0  0  0  0  0  0  0  0  0
  -48.0322   -0.4756  -23.1003 H   0  0  0  0  0  0  0  0  0  0  0  0
  -49.7456    1.5407  -24.1130 H   0  0  0  0  0  0  0  0  0  0  0  0
  -50.2615    3.1222  -25.9794 H   0  0  0  0  0  0  0  0  0  0  0  0
  -52.2805   -0.0300  -27.9240 H   0  0  0  0  0  0  0  0  0  0  0  0
  -51.3269   -2.4690  -25.5612 H   0  0  0  0  0  0  0  0  0  0  0  0
  -51.3513    3.5890  -28.0390 H   0  0  0  0  0  0  0  0  0  0  0  0
  -52.7799    2.6054  -28.2510 H   0  0  0  0  0  0  0  0  0  0  0  0
  -51.3237    2.2347  -29.1428 H   0  0  0  0  0  0  0  0  0  0  0  0
  -51.1315    1.4341  -22.3241 H   0  0  0  0  0  0  0  0  0  0  0  0
  -52.1114    2.3515  -20.2168 H   0  0  0  0  0  0  0  0  0  0  0  0
  -48.9757    0.5217  -18.0766 H   0  0  0  0  0  0  0  0  0  0  0  0
  1 14  1  0  0  0  0
  1  2  1  0  0  0  0
  1  3  2  0  0  0  0
  2 22  1  0  0  0  0
  4  2  1  0  0  0  0
  4  6  1  0  0  0  0
  4  5  2  0  0  0  0
  6  7  2  0  0  0  0
  7  9  1  0  0  0  0
  7 23  1  0  0  0  0
  8  6  1  0  0  0  0
  8 11  1  0  0  0  0
  9 12  2  0  0  0  0
  9 24  1  0  0  0  0
 10  8  2  0  0  0  0
 10 25  1  0  0  0  0
 11 26  1  0  0  0  0
 12 10  1  0  0  0  0
 12 13  1  0  0  0  0
 13 27  1  0  0  0  0
 13 28  1  0  0  0  0
 13 29  1  0  0  0  0
 14 15  2  0  0  0  0
 15 17  1  0  0  0  0
 15 30  1  0  0  0  0
 16 14  1  0  0  0  0
 16 19  1  0  0  0  0
 17 20  2  0  0  0  0
 17 31  1  0  0  0  0
 18 16  2  0  0  0  0
 18 32  1  0  0  0  0
 20 18  1  0  0  0  0
 20 21  1  0  0  0  0
M  END
>  <minimizedAffinity>
-8.77033

$$$$

 OpenBabel07052409263D

 32 33  0  0  0  0  0  0  0  0999 V2000
  -49.1852   -1.1288  -24.5742 C   0  0  0  0  0  0  0  0  0  0  0  0
  -48.8916   -0.7987  -23.2813 N   0  0  0  0  0  0  0  0  0  0  0  0
  -48.7016   -2.1048  -25.1347 O   0  0  0  0  0  0  0  0  0  0  0  0
  -49.9073   -0.9018  -22.3701 C   0  0  0  0  0  0  0  0  0  0  0  0
  -50.5957   -1.8980  -22.1817 O   0  0  0  0  0  0  0  0  0  0  0  0
  -50.0389    0.2804  -21.4851 C   0  0  0  0  0  0  0  0  0  0  0  0
  -49.0997    0.5033  -20.5456 C   0  0  0  0  0  0  0  0  0  0  0  0
  -51.3185    0.9666  -21.3767 C   0  0  0  0  0  0  0  0  0  0  0  0
  -49.5150    0.9933  -19.2399 C   0  0  0  0  0  0  0  0  0  0  0  0
  -51.6755    1.5264  -20.2080 C   0  0  0  0  0  0  0  0  0  0  0  0
  -52.1115    1.0585  -22.4975 O   0  0  0  0  0  0  0  0  0  0  0  0
  -50.7602    1.4857  -19.0666 C   0  0  0  0  0  0  0  0  0  0  0  0
  -51.2612    2.0264  -17.7634 C   0  0  0  0  0  0  0  0  0  0  0  0
  -50.0481   -0.1554  -25.2897 C   0  0  0  0  0  0  0  0  0  0  0  0
  -49.7903    1.1580  -25.1345 C   0  0  0  0  0  0  0  0  0  0  0  0
  -51.0514   -0.5965  -26.2483 C   0  0  0  0  0  0  0  0  0  0  0  0
  -50.3474    2.1133  -26.0813 C   0  0  0  0  0  0  0  0  0  0  0  0
  -51.6091    0.2975  -27.0866 C   0  0  0  0  0  0  0  0  0  0  0  0
  -51.2207    1.6976  -27.0172 C   0  0  0  0  0  0  0  0  0  0  0  0
  -51.9049    2.7959  -28.1505 Cl  0  0  0  0  0  0  0  0  0  0  0  0
  -47.9912   -0.5005  -23.0175 H   0  0  0  0  0  0  0  0  0  0  0  0
  -48.1028    0.3296  -20.7483 H   0  0  0  0  0  0  0  0  0  0  0  0
  -48.8570    0.9644  -18.4454 H   0  0  0  0  0  0  0  0  0  0  0  0
  -52.5953    1.9851  -20.1155 H   0  0  0  0  0  0  0  0  0  0  0  0
  -51.8376    0.6584  -23.2993 H   0  0  0  0  0  0  0  0  0  0  0  0
  -50.4956    1.9352  -17.0215 H   0  0  0  0  0  0  0  0  0  0  0  0
  -52.1238    1.4731  -17.4557 H   0  0  0  0  0  0  0  0  0  0  0  0
  -51.5222    3.0573  -17.8817 H   0  0  0  0  0  0  0  0  0  0  0  0
  -49.2029    1.4840  -24.3511 H   0  0  0  0  0  0  0  0  0  0  0  0
  -51.3334   -1.5885  -26.2850 H   0  0  0  0  0  0  0  0  0  0  0  0
  -50.0733    3.1071  -26.0349 H   0  0  0  0  0  0  0  0  0  0  0  0
  -52.3112   -0.0102  -27.7775 H   0  0  0  0  0  0  0  0  0  0  0  0
  1 14  1  0  0  0  0
  1  2  1  0  0  0  0
  1  3  2  0  0  0  0
  2 21  1  0  0  0  0
  4  2  1  0  0  0  0
  4  6  1  0  0  0  0
  4  5  2  0  0  0  0
  6  7  2  0  0  0  0
  7  9  1  0  0  0  0
  7 22  1  0  0  0  0
  8  6  1  0  0  0  0
  8 11  1  0  0  0  0
  9 12  2  0  0  0  0
  9 23  1  0  0  0  0
 10  8  2  0  0  0  0
 10 24  1  0  0  0  0
 11 25  1  0  0  0  0
 12 10  1  0  0  0  0
 12 13  1  0  0  0  0
 13 26  1  0  0  0  0
 13 27  1  0  0  0  0
 13 28  1  0  0  0  0
 14 15  2  0  0  0  0
 15 17  1  0  0  0  0
 15 29  1  0  0  0  0
 16 14  1  0  0  0  0
 16 30  1  0  0  0  0
 17 19  2  0  0  0  0
 17 31  1  0  0  0  0
 18 16  2  0  0  0  0
 18 32  1  0  0  0  0
 19 18  1  0  0  0  0
 19 20  1  0  0  0  0
M  END
>  <minimizedAffinity>
-8.09845

$$$$

 OpenBabel07052409263D

 33 34  0  0  0  0  0  0  0  0999 V2000
  -48.1208   -1.3516  -21.3468 C   0  0  0  0  0  0  0  0  0  0  0  0
  -49.3882   -1.8534  -21.1909 N   0  0  0  0  0  0  0  0  0  0  0  0
  -47.8108   -0.1929  -21.0968 O   0  0  0  0  0  0  0  0  0  0  0  0
  -50.0628   -2.2056  -22.3227 C   0  0  0  0  0  0  0  0  0  0  0  0
  -50.2850   -3.3743  -22.6313 O   0  0  0  0  0  0  0  0  0  0  0  0
  -47.1216   -2.3542  -21.8040 C   0  0  0  0  0  0  0  0  0  0  0  0
  -46.4343   -2.0723  -22.9283 C   0  0  0  0  0  0  0  0  0  0  0  0
  -46.7040   -3.4545  -20.9481 C   0  0  0  0  0  0  0  0  0  0  0  0
  -45.1633   -2.7345  -23.1807 C   0  0  0  0  0  0  0  0  0  0  0  0
  -45.5477   -4.1041  -21.2034 C   0  0  0  0  0  0  0  0  0  0  0  0
  -47.5712   -3.7779  -19.9252 O   0  0  0  0  0  0  0  0  0  0  0  0
  -44.1821   -2.2026  -24.6730 Br  0  0  0  0  0  0  0  0  0  0  0  0
  -44.7393   -3.7069  -22.3500 C   0  0  0  0  0  0  0  0  0  0  0  0
  -44.9363   -5.5276  -20.1625 Br  0  0  0  0  0  0  0  0  0  0  0  0
  -50.4917   -1.0999  -23.2157 C   0  0  0  0  0  0  0  0  0  0  0  0
  -51.2724   -0.1132  -22.7340 C   0  0  0  0  0  0  0  0  0  0  0  0
  -49.8289   -0.9154  -24.5013 C   0  0  0  0  0  0  0  0  0  0  0  0
  -51.1109    1.2351  -23.2571 C   0  0  0  0  0  0  0  0  0  0  0  0
  -49.7586    0.3108  -25.0460 C   0  0  0  0  0  0  0  0  0  0  0  0
  -49.3157   -2.0212  -25.1428 O   0  0  0  0  0  0  0  0  0  0  0  0
  -50.3772    1.4497  -24.3695 C   0  0  0  0  0  0  0  0  0  0  0  0
  -50.1657    2.8046  -24.9694 C   0  0  0  0  0  0  0  0  0  0  0  0
  -49.7936   -1.9550  -20.2995 H   0  0  0  0  0  0  0  0  0  0  0  0
  -46.8074   -1.3902  -23.6069 H   0  0  0  0  0  0  0  0  0  0  0  0
  -48.3583   -3.2840  -19.8045 H   0  0  0  0  0  0  0  0  0  0  0  0
  -43.8361   -4.1738  -22.5265 H   0  0  0  0  0  0  0  0  0  0  0  0
  -51.9750   -0.3108  -22.0044 H   0  0  0  0  0  0  0  0  0  0  0  0
  -51.5591    2.0303  -22.7757 H   0  0  0  0  0  0  0  0  0  0  0  0
  -49.2673    0.4489  -25.9430 H   0  0  0  0  0  0  0  0  0  0  0  0
  -49.3772   -2.8659  -24.7420 H   0  0  0  0  0  0  0  0  0  0  0  0
  -50.6698    3.5395  -24.3772 H   0  0  0  0  0  0  0  0  0  0  0  0
  -50.5573    2.8189  -25.9650 H   0  0  0  0  0  0  0  0  0  0  0  0
  -49.1187    3.0240  -24.9948 H   0  0  0  0  0  0  0  0  0  0  0  0
  1  6  1  0  0  0  0
  1  2  1  0  0  0  0
  1  3  2  0  0  0  0
  2 23  1  0  0  0  0
  4  2  1  0  0  0  0
  4 15  1  0  0  0  0
  4  5  2  0  0  0  0
  6  7  2  0  0  0  0
  7  9  1  0  0  0  0
  7 24  1  0  0  0  0
  8  6  1  0  0  0  0
  8 11  1  0  0  0  0
  9 12  1  0  0  0  0
  9 13  2  0  0  0  0
 10  8  2  0  0  0  0
 10 14  1  0  0  0  0
 11 25  1  0  0  0  0
 13 10  1  0  0  0  0
 13 26  1  0  0  0  0
 15 16  2  0  0  0  0
 16 18  1  0  0  0  0
 16 27  1  0  0  0  0
 17 15  1  0  0  0  0
 17 20  1  0  0  0  0
 18 21  2  0  0  0  0
 18 28  1  0  0  0  0
 19 17  2  0  0  0  0
 19 29  1  0  0  0  0
 20 30  1  0  0  0  0
 21 19  1  0  0  0  0
 21 22  1  0  0  0  0
 22 31  1  0  0  0  0
 22 32  1  0  0  0  0
 22 33  1  0  0  0  0
M  END
>  <minimizedAffinity>
-7.62922

$$$$

 OpenBabel07052409263D

 32 33  0  0  0  0  0  0  0  0999 V2000
  -51.6382   -0.8552  -24.8953 C   0  0  0  0  0  0  0  0  0  0  0  0
  -52.2189    0.0871  -24.0942 N   0  0  0  0  0  0  0  0  0  0  0  0
  -52.0827   -1.1515  -25.9978 O   0  0  0  0  0  0  0  0  0  0  0  0
  -51.5076    1.2348  -23.8725 C   0  0  0  0  0  0  0  0  0  0  0  0
  -51.0378    1.9597  -24.7420 O   0  0  0  0  0  0  0  0  0  0  0  0
  -51.4578    1.6422  -22.4478 C   0  0  0  0  0  0  0  0  0  0  0  0
  -50.2923    1.5486  -21.7792 C   0  0  0  0  0  0  0  0  0  0  0  0
  -52.6933    1.7838  -21.6905 C   0  0  0  0  0  0  0  0  0  0  0  0
  -50.3111    1.1026  -20.3941 C   0  0  0  0  0  0  0  0  0  0  0  0
  -52.7076    1.4846  -20.3801 C   0  0  0  0  0  0  0  0  0  0  0  0
  -53.8084    2.2657  -22.3369 O   0  0  0  0  0  0  0  0  0  0  0  0
  -51.4754    1.0644  -19.7114 C   0  0  0  0  0  0  0  0  0  0  0  0
  -51.5807    0.6370  -18.2804 C   0  0  0  0  0  0  0  0  0  0  0  0
  -50.4919   -1.5762  -24.2872 C   0  0  0  0  0  0  0  0  0  0  0  0
  -49.2859   -1.4663  -24.8766 C   0  0  0  0  0  0  0  0  0  0  0  0
  -50.6188   -2.2540  -23.0059 C   0  0  0  0  0  0  0  0  0  0  0  0
  -48.0883   -1.8080  -24.1236 C   0  0  0  0  0  0  0  0  0  0  0  0
  -49.5113   -2.6248  -22.3362 C   0  0  0  0  0  0  0  0  0  0  0  0
  -48.1918   -2.3650  -22.9009 C   0  0  0  0  0  0  0  0  0  0  0  0
  -46.6998   -2.8301  -21.8869 Br  0  0  0  0  0  0  0  0  0  0  0  0
  -53.1078   -0.0532  -23.6950 H   0  0  0  0  0  0  0  0  0  0  0  0
  -49.4014    1.7890  -22.2412 H   0  0  0  0  0  0  0  0  0  0  0  0
  -49.4336    0.8152  -19.9332 H   0  0  0  0  0  0  0  0  0  0  0  0
  -53.5877    1.5512  -19.8454 H   0  0  0  0  0  0  0  0  0  0  0  0
  -53.7698    2.4660  -23.2514 H   0  0  0  0  0  0  0  0  0  0  0  0
  -50.6129    0.3581  -17.9193 H   0  0  0  0  0  0  0  0  0  0  0  0
  -52.2439   -0.1994  -18.2058 H   0  0  0  0  0  0  0  0  0  0  0  0
  -51.9606    1.4469  -17.6933 H   0  0  0  0  0  0  0  0  0  0  0  0
  -49.2117   -1.1426  -25.8537 H   0  0  0  0  0  0  0  0  0  0  0  0
  -51.5527   -2.4494  -22.6126 H   0  0  0  0  0  0  0  0  0  0  0  0
  -47.1567   -1.6231  -24.5273 H   0  0  0  0  0  0  0  0  0  0  0  0
  -49.5962   -3.0940  -21.4210 H   0  0  0  0  0  0  0  0  0  0  0  0
  1 14  1  0  0  0  0
  1  2  1  0  0  0  0
  1  3  2  0  0  0  0
  2 21  1  0  0  0  0
  4  2  1  0  0  0  0
  4  6  1  0  0  0  0
  4  5  2  0  0  0  0
  6  7  2  0  0  0  0
  7  9  1  0  0  0  0
  7 22  1  0  0  0  0
  8  6  1  0  0  0  0
  8 11  1  0  0  0  0
  9 12  2  0  0  0  0
  9 23  1  0  0  0  0
 10  8  2  0  0  0  0
 10 24  1  0  0  0  0
 11 25  1  0  0  0  0
 12 10  1  0  0  0  0
 12 13  1  0  0  0  0
 13 26  1  0  0  0  0
 13 27  1  0  0  0  0
 13 28  1  0  0  0  0
 14 15  2  0  0  0  0
 15 17  1  0  0  0  0
 15 29  1  0  0  0  0
 16 14  1  0  0  0  0
 16 30  1  0  0  0  0
 17 19  2  0  0  0  0
 17 31  1  0  0  0  0
 18 16  2  0  0  0  0
 18 32  1  0  0  0  0
 19 18  1  0  0  0  0
 19 20  1  0  0  0  0
M  END
>  <minimizedAffinity>
-7.34598

$$$$

 OpenBabel07052409263D

 33 34  0  0  0  0  0  0  0  0999 V2000
  -49.1582   -1.7416  -24.5718 C   0  0  0  0  0  0  0  0  0  0  0  0
  -49.5872   -2.2031  -23.3573 N   0  0  0  0  0  0  0  0  0  0  0  0
  -48.2608   -2.2689  -25.2205 O   0  0  0  0  0  0  0  0  0  0  0  0
  -48.9580   -1.7030  -22.2516 C   0  0  0  0  0  0  0  0  0  0  0  0
  -47.8826   -2.1133  -21.8276 O   0  0  0  0  0  0  0  0  0  0  0  0
  -49.7197   -0.6286  -21.5677 C   0  0  0  0  0  0  0  0  0  0  0  0
  -50.9825   -0.4105  -21.9817 C   0  0  0  0  0  0  0  0  0  0  0  0
  -49.1259    0.2356  -20.5605 C   0  0  0  0  0  0  0  0  0  0  0  0
  -51.7726    0.6440  -21.3726 C   0  0  0  0  0  0  0  0  0  0  0  0
  -49.8548    1.2219  -20.0072 C   0  0  0  0  0  0  0  0  0  0  0  0
  -47.8198   -0.0266  -20.2218 O   0  0  0  0  0  0  0  0  0  0  0  0
  -51.2403    1.4396  -20.4227 C   0  0  0  0  0  0  0  0  0  0  0  0
  -51.9895    2.5566  -19.7624 C   0  0  0  0  0  0  0  0  0  0  0  0
  -49.9078   -0.5630  -25.0694 C   0  0  0  0  0  0  0  0  0  0  0  0
  -49.3141    0.6447  -24.9656 C   0  0  0  0  0  0  0  0  0  0  0  0
  -51.1963   -0.6851  -25.7403 C   0  0  0  0  0  0  0  0  0  0  0  0
  -50.0301    1.8402  -25.3809 C   0  0  0  0  0  0  0  0  0  0  0  0
  -51.8478    0.4210  -26.1438 C   0  0  0  0  0  0  0  0  0  0  0  0
  -51.6829   -1.9563  -25.9164 O   0  0  0  0  0  0  0  0  0  0  0  0
  -51.2482    1.7330  -25.9443 C   0  0  0  0  0  0  0  0  0  0  0  0
  -50.3138   -2.8633  -23.2833 H   0  0  0  0  0  0  0  0  0  0  0  0
  -51.3881   -0.9925  -22.7312 H   0  0  0  0  0  0  0  0  0  0  0  0
  -52.7508    0.7862  -21.6693 H   0  0  0  0  0  0  0  0  0  0  0  0
  -49.4341    1.8281  -19.2857 H   0  0  0  0  0  0  0  0  0  0  0  0
  -47.3590   -0.7273  -20.6398 H   0  0  0  0  0  0  0  0  0  0  0  0
  -52.9827    2.6026  -20.1578 H   0  0  0  0  0  0  0  0  0  0  0  0
  -51.4876    3.4827  -19.9503 H   0  0  0  0  0  0  0  0  0  0  0  0
  -52.0332    2.3822  -18.7076 H   0  0  0  0  0  0  0  0  0  0  0  0
  -48.3548    0.7194  -24.5926 H   0  0  0  0  0  0  0  0  0  0  0  0
  -49.6048    2.7704  -25.2439 H   0  0  0  0  0  0  0  0  0  0  0  0
  -52.7725    0.3395  -26.5947 H   0  0  0  0  0  0  0  0  0  0  0  0
  -51.1881   -2.6931  -25.6161 H   0  0  0  0  0  0  0  0  0  0  0  0
  -51.7578    2.5819  -26.2352 H   0  0  0  0  0  0  0  0  0  0  0  0
  1 14  1  0  0  0  0
  1  2  1  0  0  0  0
  1  3  2  0  0  0  0
  2 21  1  0  0  0  0
  4  2  1  0  0  0  0
  4  6  1  0  0  0  0
  4  5  2  0  0  0  0
  6  7  2  0  0  0  0
  7  9  1  0  0  0  0
  7 22  1  0  0  0  0
  8  6  1  0  0  0  0
  8 11  1  0  0  0  0
  9 12  2  0  0  0  0
  9 23  1  0  0  0  0
 10  8  2  0  0  0  0
 10 24  1  0  0  0  0
 11 25  1  0  0  0  0
 12 10  1  0  0  0  0
 12 13  1  0  0  0  0
 13 26  1  0  0  0  0
 13 27  1  0  0  0  0
 13 28  1  0  0  0  0
 14 15  2  0  0  0  0
 15 17  1  0  0  0  0
 15 29  1  0  0  0  0
 16 14  1  0  0  0  0
 16 19  1  0  0  0  0
 17 20  2  0  0  0  0
 17 30  1  0  0  0  0
 18 16  2  0  0  0  0
 18 31  1  0  0  0  0
 19 32  1  0  0  0  0
 20 18  1  0  0  0  0
 20 33  1  0  0  0  0
M  END
>  <minimizedAffinity>
-7.88607

$$$$

 OpenBabel07052409263D

 36 37  0  0  0  0  0  0  0  0999 V2000
  -50.1248   -0.8183  -22.4925 C   0  0  0  0  0  0  0  0  0  0  0  0
  -49.0204   -0.7675  -23.2958 N   0  0  0  0  0  0  0  0  0  0  0  0
  -50.8826   -1.7763  -22.3792 O   0  0  0  0  0  0  0  0  0  0  0  0
  -49.1907   -1.1191  -24.6061 C   0  0  0  0  0  0  0  0  0  0  0  0
  -48.7228   -2.1493  -25.0783 O   0  0  0  0  0  0  0  0  0  0  0  0
  -50.2979    0.3713  -21.6224 C   0  0  0  0  0  0  0  0  0  0  0  0
  -49.4012    0.6312  -20.6509 C   0  0  0  0  0  0  0  0  0  0  0  0
  -51.5624    1.0965  -21.6244 C   0  0  0  0  0  0  0  0  0  0  0  0
  -49.8638    1.2275  -19.4065 C   0  0  0  0  0  0  0  0  0  0  0  0
  -51.9547    1.7531  -20.5190 C   0  0  0  0  0  0  0  0  0  0  0  0
  -52.3044    1.1261  -22.7845 O   0  0  0  0  0  0  0  0  0  0  0  0
  -51.0983    1.7692  -19.3332 C   0  0  0  0  0  0  0  0  0  0  0  0
  -51.6457    2.4148  -18.0982 C   0  0  0  0  0  0  0  0  0  0  0  0
  -49.9377   -0.1347  -25.4256 C   0  0  0  0  0  0  0  0  0  0  0  0
  -49.7349    1.1723  -25.1651 C   0  0  0  0  0  0  0  0  0  0  0  0
  -50.8504   -0.5320  -26.4863 C   0  0  0  0  0  0  0  0  0  0  0  0
  -50.3190    2.1805  -26.0339 C   0  0  0  0  0  0  0  0  0  0  0  0
  -51.4280    0.4053  -27.2623 C   0  0  0  0  0  0  0  0  0  0  0  0
  -51.0646   -1.8798  -26.6365 O   0  0  0  0  0  0  0  0  0  0  0  0
  -51.1420    1.8227  -27.0411 C   0  0  0  0  0  0  0  0  0  0  0  0
  -51.7974    2.8102  -27.9571 C   0  0  0  0  0  0  0  0  0  0  0  0
  -48.1424   -0.4904  -22.9470 H   0  0  0  0  0  0  0  0  0  0  0  0
  -48.4022    0.4109  -20.7870 H   0  0  0  0  0  0  0  0  0  0  0  0
  -49.2473    1.2363  -18.5789 H   0  0  0  0  0  0  0  0  0  0  0  0
  -52.8611    2.2464  -20.5069 H   0  0  0  0  0  0  0  0  0  0  0  0
  -52.0090    0.6597  -23.5416 H   0  0  0  0  0  0  0  0  0  0  0  0
  -50.9204    2.3561  -17.3137 H   0  0  0  0  0  0  0  0  0  0  0  0
  -52.5388    1.9083  -17.7969 H   0  0  0  0  0  0  0  0  0  0  0  0
  -51.8691    3.4413  -18.3014 H   0  0  0  0  0  0  0  0  0  0  0  0
  -49.1669    1.4560  -24.3516 H   0  0  0  0  0  0  0  0  0  0  0  0
  -50.1025    3.1776  -25.8791 H   0  0  0  0  0  0  0  0  0  0  0  0
  -52.0745    0.1225  -28.0154 H   0  0  0  0  0  0  0  0  0  0  0  0
  -50.6359   -2.4886  -26.0676 H   0  0  0  0  0  0  0  0  0  0  0  0
  -51.5021    3.8014  -27.6830 H   0  0  0  0  0  0  0  0  0  0  0  0
  -52.8606    2.7198  -27.8771 H   0  0  0  0  0  0  0  0  0  0  0  0
  -51.4977    2.6147  -28.9655 H   0  0  0  0  0  0  0  0  0  0  0  0
  1  6  1  0  0  0  0
  1  2  1  0  0  0  0
  1  3  2  0  0  0  0
  2 22  1  0  0  0  0
  4  2  1  0  0  0  0
  4 14  1  0  0  0  0
  4  5  2  0  0  0  0
  6  7  2  0  0  0  0
  7  9  1  0  0  0  0
  7 23  1  0  0  0  0
  8  6  1  0  0  0  0
  8 11  1  0  0  0  0
  9 12  2  0  0  0  0
  9 24  1  0  0  0  0
 10  8  2  0  0  0  0
 10 25  1  0  0  0  0
 11 26  1  0  0  0  0
 12 10  1  0  0  0  0
 12 13  1  0  0  0  0
 13 27  1  0  0  0  0
 13 28  1  0  0  0  0
 13 29  1  0  0  0  0
 14 15  2  0  0  0  0
 15 17  1  0  0  0  0
 15 30  1  0  0  0  0
 16 14  1  0  0  0  0
 16 19  1  0  0  0  0
 17 20  2  0  0  0  0
 17 31  1  0  0  0  0
 18 16  2  0  0  0  0
 18 32  1  0  0  0  0
 19 33  1  0  0  0  0
 20 18  1  0  0  0  0
 20 21  1  0  0  0  0
 21 34  1  0  0  0  0
 21 35  1  0  0  0  0
 21 36  1  0  0  0  0
M  END
>  <minimizedAffinity>
-8.47941

$$$$

 OpenBabel07052409263D

 32 33  0  0  0  0  0  0  0  0999 V2000
  -51.1906    0.4006  -20.9260 C   0  0  0  0  0  0  0  0  0  0  0  0
  -51.3436    1.5971  -21.5717 N   0  0  0  0  0  0  0  0  0  0  0  0
  -51.8999    0.0350  -19.9965 O   0  0  0  0  0  0  0  0  0  0  0  0
  -52.2482    1.6417  -22.5983 C   0  0  0  0  0  0  0  0  0  0  0  0
  -53.3471    2.1740  -22.4847 O   0  0  0  0  0  0  0  0  0  0  0  0
  -51.7314    1.1350  -23.8966 C   0  0  0  0  0  0  0  0  0  0  0  0
  -50.5463    1.6305  -24.3080 C   0  0  0  0  0  0  0  0  0  0  0  0
  -52.6283    0.5337  -24.8724 C   0  0  0  0  0  0  0  0  0  0  0  0
  -50.2951    1.8178  -25.7283 C   0  0  0  0  0  0  0  0  0  0  0  0
  -52.3669    0.6434  -26.1889 C   0  0  0  0  0  0  0  0  0  0  0  0
  -53.7053   -0.1488  -24.3640 O   0  0  0  0  0  0  0  0  0  0  0  0
  -51.1677    1.3474  -26.6428 C   0  0  0  0  0  0  0  0  0  0  0  0
  -50.9734    1.5015  -28.1199 C   0  0  0  0  0  0  0  0  0  0  0  0
  -50.0061   -0.3721  -21.3665 C   0  0  0  0  0  0  0  0  0  0  0  0
  -48.7853    0.0253  -20.9547 C   0  0  0  0  0  0  0  0  0  0  0  0
  -50.1242   -1.4596  -22.3181 C   0  0  0  0  0  0  0  0  0  0  0  0
  -47.6098   -0.7422  -21.3383 C   0  0  0  0  0  0  0  0  0  0  0  0
  -49.0365   -2.1444  -22.7096 C   0  0  0  0  0  0  0  0  0  0  0  0
  -51.3420   -1.7822  -22.7990 F   0  0  0  0  0  0  0  0  0  0  0  0
  -47.7302   -1.7828  -22.1832 C   0  0  0  0  0  0  0  0  0  0  0  0
  -50.8254    2.3920  -21.3093 H   0  0  0  0  0  0  0  0  0  0  0  0
  -49.8200    1.8760  -23.6171 H   0  0  0  0  0  0  0  0  0  0  0  0
  -49.4445    2.3134  -26.0380 H   0  0  0  0  0  0  0  0  0  0  0  0
  -53.0137    0.2301  -26.8787 H   0  0  0  0  0  0  0  0  0  0  0  0
  -53.8376   -0.1921  -23.4374 H   0  0  0  0  0  0  0  0  0  0  0  0
  -50.0628    2.0315  -28.3065 H   0  0  0  0  0  0  0  0  0  0  0  0
  -51.7954    2.0483  -28.5326 H   0  0  0  0  0  0  0  0  0  0  0  0
  -50.9232    0.5348  -28.5758 H   0  0  0  0  0  0  0  0  0  0  0  0
  -48.6849    0.8698  -20.3702 H   0  0  0  0  0  0  0  0  0  0  0  0
  -46.6830   -0.4882  -20.9621 H   0  0  0  0  0  0  0  0  0  0  0  0
  -49.1277   -2.9232  -23.3806 H   0  0  0  0  0  0  0  0  0  0  0  0
  -46.8954   -2.3241  -22.4575 H   0  0  0  0  0  0  0  0  0  0  0  0
  1 14  1  0  0  0  0
  1  2  1  0  0  0  0
  1  3  2  0  0  0  0
  2 21  1  0  0  0  0
  4  2  1  0  0  0  0
  4  6  1  0  0  0  0
  4  5  2  0  0  0  0
  6  7  2  0  0  0  0
  7  9  1  0  0  0  0
  7 22  1  0  0  0  0
  8  6  1  0  0  0  0
  8 11  1  0  0  0  0
  9 12  2  0  0  0  0
  9 23  1  0  0  0  0
 10  8  2  0  0  0  0
 10 24  1  0  0  0  0
 11 25  1  0  0  0  0
 12 10  1  0  0  0  0
 12 13  1  0  0  0  0
 13 26  1  0  0  0  0
 13 27  1  0  0  0  0
 13 28  1  0  0  0  0
 14 15  2  0  0  0  0
 15 17  1  0  0  0  0
 15 29  1  0  0  0  0
 16 14  1  0  0  0  0
 16 19  1  0  0  0  0
 17 20  2  0  0  0  0
 17 30  1  0  0  0  0
 18 16  2  0  0  0  0
 18 31  1  0  0  0  0
 20 18  1  0  0  0  0
 20 32  1  0  0  0  0
M  END
>  <minimizedAffinity>
-7.55840

$$$$

 OpenBabel07052409263D

 32 33  0  0  0  0  0  0  0  0999 V2000
  -50.1744   -1.7091  -22.4628 C   0  0  0  0  0  0  0  0  0  0  0  0
  -50.2185   -2.1314  -23.7575 N   0  0  0  0  0  0  0  0  0  0  0  0
  -50.8532   -0.7932  -22.0149 O   0  0  0  0  0  0  0  0  0  0  0  0
  -49.5639   -1.3263  -24.6504 C   0  0  0  0  0  0  0  0  0  0  0  0
  -48.3742   -1.4406  -24.9265 O   0  0  0  0  0  0  0  0  0  0  0  0
  -50.4352   -0.2954  -25.2813 C   0  0  0  0  0  0  0  0  0  0  0  0
  -50.1650    0.9957  -25.0076 C   0  0  0  0  0  0  0  0  0  0  0  0
  -51.3245   -0.6193  -26.3876 C   0  0  0  0  0  0  0  0  0  0  0  0
  -50.4810    2.0180  -25.9924 C   0  0  0  0  0  0  0  0  0  0  0  0
  -51.6896    0.3388  -27.2609 C   0  0  0  0  0  0  0  0  0  0  0  0
  -51.7839   -1.9155  -26.4354 O   0  0  0  0  0  0  0  0  0  0  0  0
  -51.2108    1.7104  -27.0846 C   0  0  0  0  0  0  0  0  0  0  0  0
  -51.5756    2.7113  -28.1372 C   0  0  0  0  0  0  0  0  0  0  0  0
  -49.2754   -2.5248  -21.6079 C   0  0  0  0  0  0  0  0  0  0  0  0
  -48.0473   -2.0380  -21.3351 C   0  0  0  0  0  0  0  0  0  0  0  0
  -49.6790   -3.8314  -21.1018 C   0  0  0  0  0  0  0  0  0  0  0  0
  -47.1549   -2.7866  -20.4617 C   0  0  0  0  0  0  0  0  0  0  0  0
  -48.8408   -4.5286  -20.3122 C   0  0  0  0  0  0  0  0  0  0  0  0
  -47.5427   -3.9789  -19.9813 C   0  0  0  0  0  0  0  0  0  0  0  0
  -46.7299   -4.6954  -19.1808 F   0  0  0  0  0  0  0  0  0  0  0  0
  -50.6860   -2.9537  -24.0303 H   0  0  0  0  0  0  0  0  0  0  0  0
  -49.7369    1.2573  -24.1057 H   0  0  0  0  0  0  0  0  0  0  0  0
  -50.1451    2.9841  -25.8550 H   0  0  0  0  0  0  0  0  0  0  0  0
  -52.3070    0.1057  -28.0543 H   0  0  0  0  0  0  0  0  0  0  0  0
  -51.4937   -2.5392  -25.7992 H   0  0  0  0  0  0  0  0  0  0  0  0
  -51.1623    3.6645  -27.8815 H   0  0  0  0  0  0  0  0  0  0  0  0
  -52.6408    2.7899  -28.2008 H   0  0  0  0  0  0  0  0  0  0  0  0
  -51.1843    2.3946  -29.0814 H   0  0  0  0  0  0  0  0  0  0  0  0
  -47.7422   -1.1405  -21.7430 H   0  0  0  0  0  0  0  0  0  0  0  0
  -50.6029   -4.2198  -21.3478 H   0  0  0  0  0  0  0  0  0  0  0  0
  -46.2296   -2.4030  -20.2133 H   0  0  0  0  0  0  0  0  0  0  0  0
  -49.1221   -5.4508  -19.9443 H   0  0  0  0  0  0  0  0  0  0  0  0
  1 14  1  0  0  0  0
  1  2  1  0  0  0  0
  1  3  2  0  0  0  0
  2 21  1  0  0  0  0
  4  2  1  0  0  0  0
  4  6  1  0  0  0  0
  4  5  2  0  0  0  0
  6  7  2  0  0  0  0
  7  9  1  0  0  0  0
  7 22  1  0  0  0  0
  8  6  1  0  0  0  0
  8 11  1  0  0  0  0
  9 12  2  0  0  0  0
  9 23  1  0  0  0  0
 10  8  2  0  0  0  0
 10 24  1  0  0  0  0
 11 25  1  0  0  0  0
 12 10  1  0  0  0  0
 12 13  1  0  0  0  0
 13 26  1  0  0  0  0
 13 27  1  0  0  0  0
 13 28  1  0  0  0  0
 14 15  2  0  0  0  0
 15 17  1  0  0  0  0
 15 29  1  0  0  0  0
 16 14  1  0  0  0  0
 16 30  1  0  0  0  0
 17 19  2  0  0  0  0
 17 31  1  0  0  0  0
 18 16  2  0  0  0  0
 18 32  1  0  0  0  0
 19 18  1  0  0  0  0
 19 20  1  0  0  0  0
M  END
>  <minimizedAffinity>
-7.71582

$$$$

 OpenBabel07052409263D

 32 33  0  0  0  0  0  0  0  0999 V2000
  -50.8913   -0.2255  -22.9553 C   0  0  0  0  0  0  0  0  0  0  0  0
  -50.7648    1.0752  -22.5514 N   0  0  0  0  0  0  0  0  0  0  0  0
  -50.4954   -1.1948  -22.3179 O   0  0  0  0  0  0  0  0  0  0  0  0
  -51.5563    1.4188  -21.4944 C   0  0  0  0  0  0  0  0  0  0  0  0
  -52.7657    1.5986  -21.5795 O   0  0  0  0  0  0  0  0  0  0  0  0
  -50.7929    1.6133  -20.2397 C   0  0  0  0  0  0  0  0  0  0  0  0
  -49.5431    1.1118  -20.1972 C   0  0  0  0  0  0  0  0  0  0  0  0
  -51.4568    1.9995  -19.0046 C   0  0  0  0  0  0  0  0  0  0  0  0
  -48.9672    0.7229  -18.9199 C   0  0  0  0  0  0  0  0  0  0  0  0
  -50.8963    1.6991  -17.8172 C   0  0  0  0  0  0  0  0  0  0  0  0
  -52.6375    2.6905  -19.1390 O   0  0  0  0  0  0  0  0  0  0  0  0
  -49.6117    0.9999  -17.7676 C   0  0  0  0  0  0  0  0  0  0  0  0
  -49.0748    0.6346  -16.4183 C   0  0  0  0  0  0  0  0  0  0  0  0
  -51.5188   -0.3800  -24.2940 C   0  0  0  0  0  0  0  0  0  0  0  0
  -51.1545   -1.4493  -25.0286 C   0  0  0  0  0  0  0  0  0  0  0  0
  -52.2628    0.7092  -24.9102 C   0  0  0  0  0  0  0  0  0  0  0  0
  -51.2895   -1.4019  -26.4759 C   0  0  0  0  0  0  0  0  0  0  0  0
  -52.4406    0.7221  -26.2436 C   0  0  0  0  0  0  0  0  0  0  0  0
  -51.9097   -0.3592  -27.0578 C   0  0  0  0  0  0  0  0  0  0  0  0
  -50.1529    1.7113  -22.9875 H   0  0  0  0  0  0  0  0  0  0  0  0
  -48.9975    1.0043  -21.0665 H   0  0  0  0  0  0  0  0  0  0  0  0
  -48.0598    0.2319  -18.8947 H   0  0  0  0  0  0  0  0  0  0  0  0
  -51.3736    1.9625  -16.9409 H   0  0  0  0  0  0  0  0  0  0  0  0
  -52.9802    2.8710  -19.9922 H   0  0  0  0  0  0  0  0  0  0  0  0
  -48.1369    0.1323  -16.5317 H   0  0  0  0  0  0  0  0  0  0  0  0
  -49.7679   -0.0119  -15.9217 H   0  0  0  0  0  0  0  0  0  0  0  0
  -48.9360    1.5224  -15.8373 H   0  0  0  0  0  0  0  0  0  0  0  0
  -50.7828   -2.2948  -24.5681 H   0  0  0  0  0  0  0  0  0  0  0  0
  -52.6516    1.4670  -24.3274 H   0  0  0  0  0  0  0  0  0  0  0  0
  -50.9102   -2.1668  -27.0557 H   0  0  0  0  0  0  0  0  0  0  0  0
  -52.9536    1.4992  -26.6884 H   0  0  0  0  0  0  0  0  0  0  0  0
  -52.0088   -0.3269  -28.0845 H   0  0  0  0  0  0  0  0  0  0  0  0
  1 14  1  0  0  0  0
  1  2  1  0  0  0  0
  1  3  2  0  0  0  0
  2 20  1  0  0  0  0
  4  2  1  0  0  0  0
  4  6  1  0  0  0  0
  4  5  2  0  0  0  0
  6  7  2  0  0  0  0
  7  9  1  0  0  0  0
  7 21  1  0  0  0  0
  8  6  1  0  0  0  0
  8 11  1  0  0  0  0
  9 12  2  0  0  0  0
  9 22  1  0  0  0  0
 10  8  2  0  0  0  0
 10 23  1  0  0  0  0
 11 24  1  0  0  0  0
 12 10  1  0  0  0  0
 12 13  1  0  0  0  0
 13 25  1  0  0  0  0
 13 26  1  0  0  0  0
 13 27  1  0  0  0  0
 14 15  2  0  0  0  0
 15 17  1  0  0  0  0
 15 28  1  0  0  0  0
 16 14  1  0  0  0  0
 16 29  1  0  0  0  0
 17 19  2  0  0  0  0
 17 30  1  0  0  0  0
 18 16  2  0  0  0  0
 18 31  1  0  0  0  0
 19 18  1  0  0  0  0
 19 32  1  0  0  0  0
M  END
>  <minimizedAffinity>
-8.18800

$$$$

 OpenBabel07052409263D

 32 33  0  0  0  0  0  0  0  0999 V2000
  -50.1697   -0.1776  -25.1832 C   0  0  0  0  0  0  0  0  0  0  0  0
  -51.2574   -0.5813  -24.4535 N   0  0  0  0  0  0  0  0  0  0  0  0
  -49.0466   -0.6534  -25.0585 O   0  0  0  0  0  0  0  0  0  0  0  0
  -51.7267    0.2925  -23.5126 C   0  0  0  0  0  0  0  0  0  0  0  0
  -52.6048    1.1141  -23.7528 O   0  0  0  0  0  0  0  0  0  0  0  0
  -51.1780    0.0877  -22.1509 C   0  0  0  0  0  0  0  0  0  0  0  0
  -50.2800   -0.9068  -22.0079 C   0  0  0  0  0  0  0  0  0  0  0  0
  -51.3005    1.0950  -21.1099 C   0  0  0  0  0  0  0  0  0  0  0  0
  -49.2213   -0.7772  -21.0197 C   0  0  0  0  0  0  0  0  0  0  0  0
  -50.3684    1.1737  -20.1408 C   0  0  0  0  0  0  0  0  0  0  0  0
  -52.3962    1.9189  -21.1866 O   0  0  0  0  0  0  0  0  0  0  0  0
  -49.2537    0.2252  -20.1168 C   0  0  0  0  0  0  0  0  0  0  0  0
  -48.2047    0.4207  -19.0666 C   0  0  0  0  0  0  0  0  0  0  0  0
  -50.4697    0.8475  -26.2145 C   0  0  0  0  0  0  0  0  0  0  0  0
  -51.1071    0.4649  -27.3401 C   0  0  0  0  0  0  0  0  0  0  0  0
  -50.3242    2.2586  -25.9093 C   0  0  0  0  0  0  0  0  0  0  0  0
  -51.7543    1.4694  -28.1732 C   0  0  0  0  0  0  0  0  0  0  0  0
  -50.8908    3.1905  -26.6924 C   0  0  0  0  0  0  0  0  0  0  0  0
  -49.5846    2.6179  -24.8405 F   0  0  0  0  0  0  0  0  0  0  0  0
  -51.6456    2.7697  -27.8538 C   0  0  0  0  0  0  0  0  0  0  0  0
  -52.2282    3.7167  -28.6143 F   0  0  0  0  0  0  0  0  0  0  0  0
  -51.6803   -1.4582  -24.5999 H   0  0  0  0  0  0  0  0  0  0  0  0
  -50.3432   -1.7533  -22.5948 H   0  0  0  0  0  0  0  0  0  0  0  0
  -48.4424   -1.4541  -21.0088 H   0  0  0  0  0  0  0  0  0  0  0  0
  -50.4402    1.9034  -19.4145 H   0  0  0  0  0  0  0  0  0  0  0  0
  -53.0117    1.8160  -21.8856 H   0  0  0  0  0  0  0  0  0  0  0  0
  -47.4560   -0.3374  -19.1648 H   0  0  0  0  0  0  0  0  0  0  0  0
  -48.6536    0.3552  -18.0975 H   0  0  0  0  0  0  0  0  0  0  0  0
  -47.7548    1.3840  -19.1869 H   0  0  0  0  0  0  0  0  0  0  0  0
  -51.1360   -0.5311  -27.6088 H   0  0  0  0  0  0  0  0  0  0  0  0
  -52.2939    1.1834  -29.0051 H   0  0  0  0  0  0  0  0  0  0  0  0
  -50.7896    4.1930  -26.4694 H   0  0  0  0  0  0  0  0  0  0  0  0
  1 14  1  0  0  0  0
  1  2  1  0  0  0  0
  1  3  2  0  0  0  0
  2 22  1  0  0  0  0
  4  2  1  0  0  0  0
  4  6  1  0  0  0  0
  4  5  2  0  0  0  0
  6  7  2  0  0  0  0
  7  9  1  0  0  0  0
  7 23  1  0  0  0  0
  8  6  1  0  0  0  0
  8 11  1  0  0  0  0
  9 12  2  0  0  0  0
  9 24  1  0  0  0  0
 10  8  2  0  0  0  0
 10 25  1  0  0  0  0
 11 26  1  0  0  0  0
 12 10  1  0  0  0  0
 12 13  1  0  0  0  0
 13 27  1  0  0  0  0
 13 28  1  0  0  0  0
 13 29  1  0  0  0  0
 14 15  2  0  0  0  0
 15 17  1  0  0  0  0
 15 30  1  0  0  0  0
 16 14  1  0  0  0  0
 16 19  1  0  0  0  0
 17 20  2  0  0  0  0
 17 31  1  0  0  0  0
 18 16  2  0  0  0  0
 18 32  1  0  0  0  0
 20 18  1  0  0  0  0
 20 21  1  0  0  0  0
M  END
>  <minimizedAffinity>
-8.35003

$$$$

 OpenBabel07052409263D

 41 43  0  0  0  0  0  0  0  0999 V2000
  -49.9219    0.6041  -18.6500 C   0  0  0  0  0  0  0  0  0  0  0  0
  -49.1894    0.9362  -19.7378 C   0  0  0  0  0  0  0  0  0  0  0  0
  -51.3677    0.8446  -18.7169 C   0  0  0  0  0  0  0  0  0  0  0  0
  -49.8376    1.1353  -21.0259 C   0  0  0  0  0  0  0  0  0  0  0  0
  -51.9690    1.0424  -19.9047 C   0  0  0  0  0  0  0  0  0  0  0  0
  -51.1766    1.0293  -21.1248 C   0  0  0  0  0  0  0  0  0  0  0  0
  -49.2880   -0.1015  -17.5353 C   0  0  0  0  0  0  0  0  0  0  0  0
  -48.4636    0.5931  -16.7161 C   0  0  0  0  0  0  0  0  0  0  0  0
  -49.5053   -1.5222  -17.2322 C   0  0  0  0  0  0  0  0  0  0  0  0
  -48.0169    0.0410  -15.4415 C   0  0  0  0  0  0  0  0  0  0  0  0
  -49.0336   -2.0648  -16.0949 C   0  0  0  0  0  0  0  0  0  0  0  0
  -50.2031   -2.2379  -18.1771 O   0  0  0  0  0  0  0  0  0  0  0  0
  -46.9489    1.2157  -14.1240 I   0  0  0  0  0  0  0  0  0  0  0  0
  -48.2926   -1.2454  -15.1524 C   0  0  0  0  0  0  0  0  0  0  0  0
  -51.7697    0.4809  -22.2371 N   0  0  0  0  0  0  0  0  0  0  0  0
  -51.0763   -0.3961  -23.0381 C   0  0  0  0  0  0  0  0  0  0  0  0
  -50.8526   -1.5699  -22.7533 O   0  0  0  0  0  0  0  0  0  0  0  0
  -50.7467    0.1263  -24.3877 C   0  0  0  0  0  0  0  0  0  0  0  0
  -50.1167    1.3102  -24.5199 C   0  0  0  0  0  0  0  0  0  0  0  0
  -51.3268   -0.4979  -25.5701 C   0  0  0  0  0  0  0  0  0  0  0  0
  -50.4167    2.1444  -25.6740 C   0  0  0  0  0  0  0  0  0  0  0  0
  -51.5113    0.2300  -26.6850 C   0  0  0  0  0  0  0  0  0  0  0  0
  -51.6225   -1.8428  -25.5268 O   0  0  0  0  0  0  0  0  0  0  0  0
  -51.0956    1.6317  -26.7227 C   0  0  0  0  0  0  0  0  0  0  0  0
  -51.4361    2.4161  -27.9511 C   0  0  0  0  0  0  0  0  0  0  0  0
  -48.1670    1.0488  -19.6541 H   0  0  0  0  0  0  0  0  0  0  0  0
  -51.9262    0.8622  -17.8492 H   0  0  0  0  0  0  0  0  0  0  0  0
  -49.2729    1.3570  -21.8607 H   0  0  0  0  0  0  0  0  0  0  0  0
  -52.9875    1.2026  -19.9498 H   0  0  0  0  0  0  0  0  0  0  0  0
  -48.1445    1.5328  -16.9992 H   0  0  0  0  0  0  0  0  0  0  0  0
  -49.1984   -3.0632  -15.8924 H   0  0  0  0  0  0  0  0  0  0  0  0
  -50.5109   -1.8132  -18.9535 H   0  0  0  0  0  0  0  0  0  0  0  0
  -47.9760   -1.6503  -14.2575 H   0  0  0  0  0  0  0  0  0  0  0  0
  -52.6984    0.7179  -22.4622 H   0  0  0  0  0  0  0  0  0  0  0  0
  -49.4317    1.6207  -23.8132 H   0  0  0  0  0  0  0  0  0  0  0  0
  -50.1100    3.1296  -25.6910 H   0  0  0  0  0  0  0  0  0  0  0  0
  -51.9469   -0.2008  -27.5155 H   0  0  0  0  0  0  0  0  0  0  0  0
  -51.4847   -2.3276  -24.7369 H   0  0  0  0  0  0  0  0  0  0  0  0
  -51.0760    3.4182  -27.8456 H   0  0  0  0  0  0  0  0  0  0  0  0
  -52.4980    2.4306  -28.0821 H   0  0  0  0  0  0  0  0  0  0  0  0
  -50.9777    1.9603  -28.8038 H   0  0  0  0  0  0  0  0  0  0  0  0
  1  7  1  0  0  0  0
  1  3  1  0  0  0  0
  2  1  2  0  0  0  0
  2 26  1  0  0  0  0
  3  5  2  0  0  0  0
  3 27  1  0  0  0  0
  4  2  1  0  0  0  0
  4 28  1  0  0  0  0
  5  6  1  0  0  0  0
  5 29  1  0  0  0  0
  6  4  2  0  0  0  0
  7  8  2  0  0  0  0
  8 10  1  0  0  0  0
  8 30  1  0  0  0  0
  9  7  1  0  0  0  0
  9 12  1  0  0  0  0
 10 13  1  0  0  0  0
 10 14  2  0  0  0  0
 11  9  2  0  0  0  0
 11 31  1  0  0  0  0
 12 32  1  0  0  0  0
 14 11  1  0  0  0  0
 14 33  1  0  0  0  0
 15  6  1  0  0  0  0
 15 34  1  0  0  0  0
 16 15  1  0  0  0  0
 16 18  1  0  0  0  0
 16 17  2  0  0  0  0
 18 19  2  0  0  0  0
 19 21  1  0  0  0  0
 19 35  1  0  0  0  0
 20 18  1  0  0  0  0
 20 23  1  0  0  0  0
 21 24  2  0  0  0  0
 21 36  1  0  0  0  0
 22 20  2  0  0  0  0
 22 37  1  0  0  0  0
 23 38  1  0  0  0  0
 24 22  1  0  0  0  0
 24 25  1  0  0  0  0
 25 39  1  0  0  0  0
 25 40  1  0  0  0  0
 25 41  1  0  0  0  0
M  END
>  <minimizedAffinity>
-9.34676

$$$$

 OpenBabel07052409263D

 43 45  0  0  0  0  0  0  0  0999 V2000
  -49.2018    0.6614  -19.2312 C   0  0  0  0  0  0  0  0  0  0  0  0
  -50.1645    1.0639  -20.0927 C   0  0  0  0  0  0  0  0  0  0  0  0
  -48.0305   -0.0303  -19.7843 C   0  0  0  0  0  0  0  0  0  0  0  0
  -50.0795    0.7390  -21.5084 C   0  0  0  0  0  0  0  0  0  0  0  0
  -47.9842   -0.3818  -21.0820 C   0  0  0  0  0  0  0  0  0  0  0  0
  -49.1045   -0.0750  -21.9548 C   0  0  0  0  0  0  0  0  0  0  0  0
  -49.3885    0.8653  -17.7952 C   0  0  0  0  0  0  0  0  0  0  0  0
  -50.5046    1.4851  -17.3482 C   0  0  0  0  0  0  0  0  0  0  0  0
  -48.3801    0.4745  -16.8057 C   0  0  0  0  0  0  0  0  0  0  0  0
  -50.6461    1.8613  -15.9515 C   0  0  0  0  0  0  0  0  0  0  0  0
  -48.5238    0.7937  -15.5067 C   0  0  0  0  0  0  0  0  0  0  0  0
  -49.6977    1.5298  -15.0534 C   0  0  0  0  0  0  0  0  0  0  0  0
  -49.7843    1.8705  -13.5983 C   0  0  0  0  0  0  0  0  0  0  0  0
  -49.2895   -0.8902  -23.0443 N   0  0  0  0  0  0  0  0  0  0  0  0
  -50.5222   -0.9625  -23.6543 C   0  0  0  0  0  0  0  0  0  0  0  0
  -51.4787   -1.5816  -23.2019 O   0  0  0  0  0  0  0  0  0  0  0  0
  -50.5722   -0.2213  -24.9376 C   0  0  0  0  0  0  0  0  0  0  0  0
  -50.0565    1.0242  -24.9473 C   0  0  0  0  0  0  0  0  0  0  0  0
  -51.3695   -0.6853  -26.0636 C   0  0  0  0  0  0  0  0  0  0  0  0
  -50.4179    1.9480  -26.0107 C   0  0  0  0  0  0  0  0  0  0  0  0
  -51.6691    0.1591  -27.0697 C   0  0  0  0  0  0  0  0  0  0  0  0
  -51.7642   -2.0022  -26.0371 O   0  0  0  0  0  0  0  0  0  0  0  0
  -51.1929    1.5422  -27.0369 C   0  0  0  0  0  0  0  0  0  0  0  0
  -51.6013    2.4401  -28.1636 C   0  0  0  0  0  0  0  0  0  0  0  0
  -50.9683    1.6076  -19.7416 H   0  0  0  0  0  0  0  0  0  0  0  0
  -47.2317   -0.2498  -19.1689 H   0  0  0  0  0  0  0  0  0  0  0  0
  -50.7666    1.1325  -22.1703 H   0  0  0  0  0  0  0  0  0  0  0  0
  -47.1548   -0.8683  -21.4567 H   0  0  0  0  0  0  0  0  0  0  0  0
  -51.2684    1.6943  -18.0099 H   0  0  0  0  0  0  0  0  0  0  0  0
  -47.5473   -0.0535  -17.1101 H   0  0  0  0  0  0  0  0  0  0  0  0
  -51.4798    2.3867  -15.6450 H   0  0  0  0  0  0  0  0  0  0  0  0
  -47.7987    0.5158  -14.8270 H   0  0  0  0  0  0  0  0  0  0  0  0
  -50.6912    2.4064  -13.4108 H   0  0  0  0  0  0  0  0  0  0  0  0
  -48.9476    2.4784  -13.3239 H   0  0  0  0  0  0  0  0  0  0  0  0
  -49.7760    0.9702  -13.0201 H   0  0  0  0  0  0  0  0  0  0  0  0
  -48.5386   -1.4246  -23.3904 H   0  0  0  0  0  0  0  0  0  0  0  0
  -49.4071    1.3212  -24.2022 H   0  0  0  0  0  0  0  0  0  0  0  0
  -50.0785    2.9221  -25.9797 H   0  0  0  0  0  0  0  0  0  0  0  0
  -52.2364   -0.1707  -27.8662 H   0  0  0  0  0  0  0  0  0  0  0  0
  -51.5287   -2.5474  -25.3123 H   0  0  0  0  0  0  0  0  0  0  0  0
  -51.1855    3.4143  -28.0120 H   0  0  0  0  0  0  0  0  0  0  0  0
  -52.6686    2.5089  -28.1960 H   0  0  0  0  0  0  0  0  0  0  0  0
  -51.2416    2.0387  -29.0879 H   0  0  0  0  0  0  0  0  0  0  0  0
  1  7  1  0  0  0  0
  1  3  1  0  0  0  0
  2  1  2  0  0  0  0
  2 25  1  0  0  0  0
  3  5  2  0  0  0  0
  3 26  1  0  0  0  0
  4  2  1  0  0  0  0
  4 27  1  0  0  0  0
  5  6  1  0  0  0  0
  5 28  1  0  0  0  0
  6  4  2  0  0  0  0
  7  8  2  0  0  0  0
  8 10  1  0  0  0  0
  8 29  1  0  0  0  0
  9  7  1  0  0  0  0
  9 30  1  0  0  0  0
 10 12  2  0  0  0  0
 10 31  1  0  0  0  0
 11  9  2  0  0  0  0
 11 32  1  0  0  0  0
 12 11  1  0  0  0  0
 12 13  1  0  0  0  0
 13 33  1  0  0  0  0
 13 34  1  0  0  0  0
 13 35  1  0  0  0  0
 14  6  1  0  0  0  0
 14 36  1  0  0  0  0
 15 14  1  0  0  0  0
 15 17  1  0  0  0  0
 15 16  2  0  0  0  0
 17 18  2  0  0  0  0
 18 20  1  0  0  0  0
 18 37  1  0  0  0  0
 19 17  1  0  0  0  0
 19 22  1  0  0  0  0
 20 23  2  0  0  0  0
 20 38  1  0  0  0  0
 21 19  2  0  0  0  0
 21 39  1  0  0  0  0
 22 40  1  0  0  0  0
 23 21  1  0  0  0  0
 23 24  1  0  0  0  0
 24 41  1  0  0  0  0
 24 42  1  0  0  0  0
 24 43  1  0  0  0  0
M  END
>  <minimizedAffinity>
-9.53748

$$$$

 OpenBabel07052409263D

 41 43  0  0  0  0  0  0  0  0999 V2000
  -51.0679    0.8296  -24.0695 C   0  0  0  0  0  0  0  0  0  0  0  0
  -52.2618    1.0477  -23.4730 C   0  0  0  0  0  0  0  0  0  0  0  0
  -49.9757    0.3226  -23.2266 C   0  0  0  0  0  0  0  0  0  0  0  0
  -52.3482    1.1417  -22.0217 C   0  0  0  0  0  0  0  0  0  0  0  0
  -50.0554    0.4018  -21.8851 C   0  0  0  0  0  0  0  0  0  0  0  0
  -51.2375    0.9848  -21.2720 C   0  0  0  0  0  0  0  0  0  0  0  0
  -50.8788    1.2231  -25.4675 C   0  0  0  0  0  0  0  0  0  0  0  0
  -51.0648    0.2918  -26.4354 C   0  0  0  0  0  0  0  0  0  0  0  0
  -50.5880    2.5940  -25.9064 C   0  0  0  0  0  0  0  0  0  0  0  0
  -51.3331    0.6931  -27.8059 C   0  0  0  0  0  0  0  0  0  0  0  0
  -50.7314    2.9531  -27.1966 C   0  0  0  0  0  0  0  0  0  0  0  0
  -50.1478    3.4570  -24.9294 O   0  0  0  0  0  0  0  0  0  0  0  0
  -51.1706    1.9747  -28.1734 C   0  0  0  0  0  0  0  0  0  0  0  0
  -51.0498    1.7034  -20.1174 N   0  0  0  0  0  0  0  0  0  0  0  0
  -51.3385    1.1531  -18.8860 C   0  0  0  0  0  0  0  0  0  0  0  0
  -52.4292    0.7051  -18.5481 O   0  0  0  0  0  0  0  0  0  0  0  0
  -50.1745    1.2229  -17.9669 C   0  0  0  0  0  0  0  0  0  0  0  0
  -49.0170    0.6735  -18.3908 C   0  0  0  0  0  0  0  0  0  0  0  0
  -50.3396    1.5774  -16.5647 C   0  0  0  0  0  0  0  0  0  0  0  0
  -48.0187    0.2542  -17.4175 C   0  0  0  0  0  0  0  0  0  0  0  0
  -49.3931    1.2338  -15.6699 C   0  0  0  0  0  0  0  0  0  0  0  0
  -51.4718    2.2904  -16.2417 O   0  0  0  0  0  0  0  0  0  0  0  0
  -48.1955    0.5110  -16.1047 C   0  0  0  0  0  0  0  0  0  0  0  0
  -47.2216    0.0955  -15.0438 C   0  0  0  0  0  0  0  0  0  0  0  0
  -53.1135    1.1478  -24.0471 H   0  0  0  0  0  0  0  0  0  0  0  0
  -49.1417   -0.0971  -23.6664 H   0  0  0  0  0  0  0  0  0  0  0  0
  -53.2564    1.3278  -21.5684 H   0  0  0  0  0  0  0  0  0  0  0  0
  -49.2834    0.0514  -21.2966 H   0  0  0  0  0  0  0  0  0  0  0  0
  -51.0154   -0.7110  -26.1965 H   0  0  0  0  0  0  0  0  0  0  0  0
  -51.6483   -0.0061  -28.4964 H   0  0  0  0  0  0  0  0  0  0  0  0
  -50.5293    3.9218  -27.4895 H   0  0  0  0  0  0  0  0  0  0  0  0
  -50.0644    3.1598  -24.0447 H   0  0  0  0  0  0  0  0  0  0  0  0
  -51.3574    2.2622  -29.1468 H   0  0  0  0  0  0  0  0  0  0  0  0
  -50.7045    2.6239  -20.1690 H   0  0  0  0  0  0  0  0  0  0  0  0
  -48.8403    0.5512  -19.4002 H   0  0  0  0  0  0  0  0  0  0  0  0
  -47.1710   -0.2423  -17.7335 H   0  0  0  0  0  0  0  0  0  0  0  0
  -49.5121    1.4806  -14.6749 H   0  0  0  0  0  0  0  0  0  0  0  0
  -52.0977    2.5019  -16.9061 H   0  0  0  0  0  0  0  0  0  0  0  0
  -46.3997   -0.4193  -15.4960 H   0  0  0  0  0  0  0  0  0  0  0  0
  -47.7090   -0.5536  -14.3467 H   0  0  0  0  0  0  0  0  0  0  0  0
  -46.8608    0.9628  -14.5314 H   0  0  0  0  0  0  0  0  0  0  0  0
  1  7  1  0  0  0  0
  1  3  1  0  0  0  0
  2  1  2  0  0  0  0
  2 25  1  0  0  0  0
  3  5  2  0  0  0  0
  3 26  1  0  0  0  0
  4  2  1  0  0  0  0
  4 27  1  0  0  0  0
  5  6  1  0  0  0  0
  5 28  1  0  0  0  0
  6  4  2  0  0  0  0
  7  8  2  0  0  0  0
  8 10  1  0  0  0  0
  8 29  1  0  0  0  0
  9  7  1  0  0  0  0
  9 12  1  0  0  0  0
 10 13  2  0  0  0  0
 10 30  1  0  0  0  0
 11  9  2  0  0  0  0
 11 31  1  0  0  0  0
 12 32  1  0  0  0  0
 13 11  1  0  0  0  0
 13 33  1  0  0  0  0
 14  6  1  0  0  0  0
 14 34  1  0  0  0  0
 15 14  1  0  0  0  0
 15 17  1  0  0  0  0
 15 16  2  0  0  0  0
 17 18  2  0  0  0  0
 18 20  1  0  0  0  0
 18 35  1  0  0  0  0
 19 17  1  0  0  0  0
 19 22  1  0  0  0  0
 20 23  2  0  0  0  0
 20 36  1  0  0  0  0
 21 19  2  0  0  0  0
 21 37  1  0  0  0  0
 22 38  1  0  0  0  0
 23 21  1  0  0  0  0
 23 24  1  0  0  0  0
 24 39  1  0  0  0  0
 24 40  1  0  0  0  0
 24 41  1  0  0  0  0
M  END
>  <minimizedAffinity>
-9.65799

$$$$

 OpenBabel07052409263D

 44 46  0  0  0  0  0  0  0  0999 V2000
  -49.6207    0.2021  -18.2223 C   0  0  0  0  0  0  0  0  0  0  0  0
  -50.1566   -0.9937  -18.5515 C   0  0  0  0  0  0  0  0  0  0  0  0
  -48.6171    0.7677  -19.1294 C   0  0  0  0  0  0  0  0  0  0  0  0
  -49.5494   -1.8142  -19.5881 C   0  0  0  0  0  0  0  0  0  0  0  0
  -48.1720    0.0709  -20.1910 C   0  0  0  0  0  0  0  0  0  0  0  0
  -48.7042   -1.2546  -20.4707 C   0  0  0  0  0  0  0  0  0  0  0  0
  -50.0174    0.8522  -16.9731 C   0  0  0  0  0  0  0  0  0  0  0  0
  -49.4293    0.4594  -15.8200 C   0  0  0  0  0  0  0  0  0  0  0  0
  -50.8993    2.0270  -16.9044 C   0  0  0  0  0  0  0  0  0  0  0  0
  -49.3254    1.3728  -14.6937 C   0  0  0  0  0  0  0  0  0  0  0  0
  -50.8933    2.8296  -15.8226 C   0  0  0  0  0  0  0  0  0  0  0  0
  -51.7196    2.2278  -17.9910 O   0  0  0  0  0  0  0  0  0  0  0  0
  -50.0284    2.5230  -14.6852 C   0  0  0  0  0  0  0  0  0  0  0  0
  -49.9832    3.5079  -13.5585 C   0  0  0  0  0  0  0  0  0  0  0  0
  -48.6659   -1.7093  -21.7668 N   0  0  0  0  0  0  0  0  0  0  0  0
  -49.8127   -2.0888  -22.4210 C   0  0  0  0  0  0  0  0  0  0  0  0
  -50.2833   -3.2205  -22.3839 O   0  0  0  0  0  0  0  0  0  0  0  0
  -50.3674   -1.0677  -23.3450 C   0  0  0  0  0  0  0  0  0  0  0  0
  -51.1804   -0.1122  -22.8567 C   0  0  0  0  0  0  0  0  0  0  0  0
  -49.7562   -0.8756  -24.6545 C   0  0  0  0  0  0  0  0  0  0  0  0
  -51.0856    1.2369  -23.3920 C   0  0  0  0  0  0  0  0  0  0  0  0
  -49.7437    0.3503  -25.2078 C   0  0  0  0  0  0  0  0  0  0  0  0
  -49.2472   -1.9748  -25.3112 O   0  0  0  0  0  0  0  0  0  0  0  0
  -50.3828    1.4727  -24.5205 C   0  0  0  0  0  0  0  0  0  0  0  0
  -50.2413    2.8319  -25.1357 C   0  0  0  0  0  0  0  0  0  0  0  0
  -51.0028   -1.3275  -18.0641 H   0  0  0  0  0  0  0  0  0  0  0  0
  -48.2466    1.7142  -18.9510 H   0  0  0  0  0  0  0  0  0  0  0  0
  -49.7667   -2.8214  -19.6455 H   0  0  0  0  0  0  0  0  0  0  0  0
  -47.4517    0.4772  -20.8083 H   0  0  0  0  0  0  0  0  0  0  0  0
  -49.0509   -0.4973  -15.7390 H   0  0  0  0  0  0  0  0  0  0  0  0
  -48.7112    1.1398  -13.8978 H   0  0  0  0  0  0  0  0  0  0  0  0
  -51.5011    3.6632  -15.7969 H   0  0  0  0  0  0  0  0  0  0  0  0
  -51.6848    1.6394  -18.7194 H   0  0  0  0  0  0  0  0  0  0  0  0
  -49.3139    3.1543  -12.8023 H   0  0  0  0  0  0  0  0  0  0  0  0
  -50.9630    3.6202  -13.1434 H   0  0  0  0  0  0  0  0  0  0  0  0
  -49.6405    4.4531  -13.9246 H   0  0  0  0  0  0  0  0  0  0  0  0
  -47.8015   -1.7641  -22.2348 H   0  0  0  0  0  0  0  0  0  0  0  0
  -51.8611   -0.3337  -22.1133 H   0  0  0  0  0  0  0  0  0  0  0  0
  -51.5572    2.0166  -22.9076 H   0  0  0  0  0  0  0  0  0  0  0  0
  -49.2824    0.4995  -26.1188 H   0  0  0  0  0  0  0  0  0  0  0  0
  -49.2692   -2.8171  -24.9013 H   0  0  0  0  0  0  0  0  0  0  0  0
  -50.7540    3.5516  -24.5323 H   0  0  0  0  0  0  0  0  0  0  0  0
  -50.6642    2.8243  -26.1185 H   0  0  0  0  0  0  0  0  0  0  0  0
  -49.2047    3.0902  -25.1955 H   0  0  0  0  0  0  0  0  0  0  0  0
  1  7  1  0  0  0  0
  1  3  1  0  0  0  0
  2  1  2  0  0  0  0
  2 26  1  0  0  0  0
  3  5  2  0  0  0  0
  3 27  1  0  0  0  0
  4  2  1  0  0  0  0
  4 28  1  0  0  0  0
  5  6  1  0  0  0  0
  5 29  1  0  0  0  0
  6  4  2  0  0  0  0
  7  8  2  0  0  0  0
  8 10  1  0  0  0  0
  8 30  1  0  0  0  0
  9  7  1  0  0  0  0
  9 12  1  0  0  0  0
 10 13  2  0  0  0  0
 10 31  1  0  0  0  0
 11  9  2  0  0  0  0
 11 32  1  0  0  0  0
 12 33  1  0  0  0  0
 13 11  1  0  0  0  0
 13 14  1  0  0  0  0
 14 34  1  0  0  0  0
 14 35  1  0  0  0  0
 14 36  1  0  0  0  0
 15  6  1  0  0  0  0
 15 37  1  0  0  0  0
 16 15  1  0  0  0  0
 16 18  1  0  0  0  0
 16 17  2  0  0  0  0
 18 19  2  0  0  0  0
 19 21  1  0  0  0  0
 19 38  1  0  0  0  0
 20 18  1  0  0  0  0
 20 23  1  0  0  0  0
 21 24  2  0  0  0  0
 21 39  1  0  0  0  0
 22 20  2  0  0  0  0
 22 40  1  0  0  0  0
 23 41  1  0  0  0  0
 24 22  1  0  0  0  0
 24 25  1  0  0  0  0
 25 42  1  0  0  0  0
 25 43  1  0  0  0  0
 25 44  1  0  0  0  0
M  END
>  <minimizedAffinity>
-9.30922

$$$$

 OpenBabel07052409263D

 40 42  0  0  0  0  0  0  0  0999 V2000
  -51.2652    0.6391  -23.8221 C   0  0  0  0  0  0  0  0  0  0  0  0
  -52.3072    1.2015  -23.1634 C   0  0  0  0  0  0  0  0  0  0  0  0
  -50.1902    0.0492  -23.0133 C   0  0  0  0  0  0  0  0  0  0  0  0
  -52.1921    1.5206  -21.7462 C   0  0  0  0  0  0  0  0  0  0  0  0
  -50.0853    0.3404  -21.7035 C   0  0  0  0  0  0  0  0  0  0  0  0
  -51.0521    1.2340  -21.0853 C   0  0  0  0  0  0  0  0  0  0  0  0
  -51.2019    0.7275  -25.2794 C   0  0  0  0  0  0  0  0  0  0  0  0
  -51.5598   -0.3427  -26.0262 C   0  0  0  0  0  0  0  0  0  0  0  0
  -50.8197    1.9459  -25.9916 C   0  0  0  0  0  0  0  0  0  0  0  0
  -51.5161   -0.2959  -27.4801 C   0  0  0  0  0  0  0  0  0  0  0  0
  -50.7881    2.0019  -27.3328 C   0  0  0  0  0  0  0  0  0  0  0  0
  -50.5042    3.0399  -25.2714 F   0  0  0  0  0  0  0  0  0  0  0  0
  -51.1419    0.8323  -28.1090 C   0  0  0  0  0  0  0  0  0  0  0  0
  -50.5998    2.0379  -20.0674 N   0  0  0  0  0  0  0  0  0  0  0  0
  -51.3016    2.1252  -18.8832 C   0  0  0  0  0  0  0  0  0  0  0  0
  -52.4682    2.4835  -18.7821 O   0  0  0  0  0  0  0  0  0  0  0  0
  -50.4554    1.7973  -17.7102 C   0  0  0  0  0  0  0  0  0  0  0  0
  -49.4367    0.9331  -17.8983 C   0  0  0  0  0  0  0  0  0  0  0  0
  -50.8405    2.1882  -16.3623 C   0  0  0  0  0  0  0  0  0  0  0  0
  -48.8009    0.3062  -16.7496 C   0  0  0  0  0  0  0  0  0  0  0  0
  -50.2355    1.6241  -15.3009 C   0  0  0  0  0  0  0  0  0  0  0  0
  -51.8145    3.1539  -16.2603 O   0  0  0  0  0  0  0  0  0  0  0  0
  -49.1836    0.6260  -15.4956 C   0  0  0  0  0  0  0  0  0  0  0  0
  -48.5855    0.0048  -14.2696 C   0  0  0  0  0  0  0  0  0  0  0  0
  -53.1849    1.4045  -23.6668 H   0  0  0  0  0  0  0  0  0  0  0  0
  -49.5113   -0.5924  -23.4521 H   0  0  0  0  0  0  0  0  0  0  0  0
  -52.9805    1.9645  -21.2499 H   0  0  0  0  0  0  0  0  0  0  0  0
  -49.3228   -0.0682  -21.1407 H   0  0  0  0  0  0  0  0  0  0  0  0
  -51.8694   -1.2078  -25.5562 H   0  0  0  0  0  0  0  0  0  0  0  0
  -51.7729   -1.1307  -28.0299 H   0  0  0  0  0  0  0  0  0  0  0  0
  -50.5127    2.8754  -27.8084 H   0  0  0  0  0  0  0  0  0  0  0  0
  -51.1071    0.8642  -29.1399 H   0  0  0  0  0  0  0  0  0  0  0  0
  -49.7700    2.5547  -20.1838 H   0  0  0  0  0  0  0  0  0  0  0  0
  -49.1097    0.7176  -18.8531 H   0  0  0  0  0  0  0  0  0  0  0  0
  -48.0515   -0.3883  -16.8949 H   0  0  0  0  0  0  0  0  0  0  0  0
  -50.5147    1.8967  -14.3455 H   0  0  0  0  0  0  0  0  0  0  0  0
  -52.2019    3.5122  -17.0346 H   0  0  0  0  0  0  0  0  0  0  0  0
  -47.8350   -0.7014  -14.5575 H   0  0  0  0  0  0  0  0  0  0  0  0
  -49.3509   -0.4950  -13.7134 H   0  0  0  0  0  0  0  0  0  0  0  0
  -48.1437    0.7673  -13.6627 H   0  0  0  0  0  0  0  0  0  0  0  0
  1  7  1  0  0  0  0
  1  3  1  0  0  0  0
  2  1  2  0  0  0  0
  2 25  1  0  0  0  0
  3  5  2  0  0  0  0
  3 26  1  0  0  0  0
  4  2  1  0  0  0  0
  4 27  1  0  0  0  0
  5  6  1  0  0  0  0
  5 28  1  0  0  0  0
  6  4  2  0  0  0  0
  7  8  2  0  0  0  0
  8 10  1  0  0  0  0
  8 29  1  0  0  0  0
  9  7  1  0  0  0  0
  9 12  1  0  0  0  0
 10 13  2  0  0  0  0
 10 30  1  0  0  0  0
 11  9  2  0  0  0  0
 11 31  1  0  0  0  0
 13 11  1  0  0  0  0
 13 32  1  0  0  0  0
 14  6  1  0  0  0  0
 14 33  1  0  0  0  0
 15 14  1  0  0  0  0
 15 17  1  0  0  0  0
 15 16  2  0  0  0  0
 17 18  2  0  0  0  0
 18 20  1  0  0  0  0
 18 34  1  0  0  0  0
 19 17  1  0  0  0  0
 19 22  1  0  0  0  0
 20 23  2  0  0  0  0
 20 35  1  0  0  0  0
 21 19  2  0  0  0  0
 21 36  1  0  0  0  0
 22 37  1  0  0  0  0
 23 21  1  0  0  0  0
 23 24  1  0  0  0  0
 24 38  1  0  0  0  0
 24 39  1  0  0  0  0
 24 40  1  0  0  0  0
M  END
>  <minimizedAffinity>
-9.49324

$$$$

 OpenBabel07052409263D

 40 42  0  0  0  0  0  0  0  0999 V2000
  -50.9082    1.0651  -18.4782 C   0  0  0  0  0  0  0  0  0  0  0  0
  -51.5628    1.6886  -19.4848 C   0  0  0  0  0  0  0  0  0  0  0  0
  -50.3980   -0.2846  -18.7419 C   0  0  0  0  0  0  0  0  0  0  0  0
  -51.4296    1.2117  -20.8544 C   0  0  0  0  0  0  0  0  0  0  0  0
  -50.2964   -0.7377  -20.0040 C   0  0  0  0  0  0  0  0  0  0  0  0
  -50.6927    0.1160  -21.1140 C   0  0  0  0  0  0  0  0  0  0  0  0
  -50.6120    1.7970  -17.2489 C   0  0  0  0  0  0  0  0  0  0  0  0
  -51.1623    3.0168  -17.0520 C   0  0  0  0  0  0  0  0  0  0  0  0
  -49.8044    1.2254  -16.1621 C   0  0  0  0  0  0  0  0  0  0  0  0
  -51.1869    3.6147  -15.7267 C   0  0  0  0  0  0  0  0  0  0  0  0
  -49.7553    1.8205  -14.9573 C   0  0  0  0  0  0  0  0  0  0  0  0
  -50.5027    3.0376  -14.7309 C   0  0  0  0  0  0  0  0  0  0  0  0
  -50.4876    3.5803  -13.4992 F   0  0  0  0  0  0  0  0  0  0  0  0
  -49.9704    0.0247  -22.2772 N   0  0  0  0  0  0  0  0  0  0  0  0
  -50.4777   -0.6401  -23.3746 C   0  0  0  0  0  0  0  0  0  0  0  0
  -50.9214   -1.7811  -23.3704 O   0  0  0  0  0  0  0  0  0  0  0  0
  -50.3768    0.1795  -24.6072 C   0  0  0  0  0  0  0  0  0  0  0  0
  -50.2423    1.5107  -24.4554 C   0  0  0  0  0  0  0  0  0  0  0  0
  -50.7025   -0.3744  -25.9123 C   0  0  0  0  0  0  0  0  0  0  0  0
  -50.5868    2.3989  -25.5519 C   0  0  0  0  0  0  0  0  0  0  0  0
  -50.9802    0.4473  -26.9397 C   0  0  0  0  0  0  0  0  0  0  0  0
  -50.6707   -1.7445  -26.0196 O   0  0  0  0  0  0  0  0  0  0  0  0
  -50.9494    1.8974  -26.7498 C   0  0  0  0  0  0  0  0  0  0  0  0
  -51.3277    2.7539  -27.9186 C   0  0  0  0  0  0  0  0  0  0  0  0
  -52.1592    2.5058  -19.2812 H   0  0  0  0  0  0  0  0  0  0  0  0
  -50.1156   -0.8895  -17.9549 H   0  0  0  0  0  0  0  0  0  0  0  0
  -51.8994    1.7131  -21.6244 H   0  0  0  0  0  0  0  0  0  0  0  0
  -49.9383   -1.6885  -20.1850 H   0  0  0  0  0  0  0  0  0  0  0  0
  -51.5689    3.5285  -17.8507 H   0  0  0  0  0  0  0  0  0  0  0  0
  -49.2694    0.3582  -16.3254 H   0  0  0  0  0  0  0  0  0  0  0  0
  -51.7274    4.4769  -15.5550 H   0  0  0  0  0  0  0  0  0  0  0  0
  -49.1877    1.4111  -14.1988 H   0  0  0  0  0  0  0  0  0  0  0  0
  -49.0788    0.4389  -22.3293 H   0  0  0  0  0  0  0  0  0  0  0  0
  -49.8959    1.8982  -23.5638 H   0  0  0  0  0  0  0  0  0  0  0  0
  -50.5538    3.4210  -25.4131 H   0  0  0  0  0  0  0  0  0  0  0  0
  -51.2156    0.0541  -27.8643 H   0  0  0  0  0  0  0  0  0  0  0  0
  -50.4710   -2.2687  -25.2691 H   0  0  0  0  0  0  0  0  0  0  0  0
  -51.2617    3.7852  -27.6412 H   0  0  0  0  0  0  0  0  0  0  0  0
  -52.3303    2.5281  -28.2166 H   0  0  0  0  0  0  0  0  0  0  0  0
  -50.6614    2.5603  -28.7331 H   0  0  0  0  0  0  0  0  0  0  0  0
  1  7  1  0  0  0  0
  1  3  1  0  0  0  0
  2  1  2  0  0  0  0
  2 25  1  0  0  0  0
  3  5  2  0  0  0  0
  3 26  1  0  0  0  0
  4  2  1  0  0  0  0
  4 27  1  0  0  0  0
  5  6  1  0  0  0  0
  5 28  1  0  0  0  0
  6  4  2  0  0  0  0
  7  8  2  0  0  0  0
  8 10  1  0  0  0  0
  8 29  1  0  0  0  0
  9  7  1  0  0  0  0
  9 30  1  0  0  0  0
 10 12  2  0  0  0  0
 10 31  1  0  0  0  0
 11  9  2  0  0  0  0
 11 32  1  0  0  0  0
 12 11  1  0  0  0  0
 12 13  1  0  0  0  0
 14  6  1  0  0  0  0
 14 33  1  0  0  0  0
 15 14  1  0  0  0  0
 15 17  1  0  0  0  0
 15 16  2  0  0  0  0
 17 18  2  0  0  0  0
 18 20  1  0  0  0  0
 18 34  1  0  0  0  0
 19 17  1  0  0  0  0
 19 22  1  0  0  0  0
 20 23  2  0  0  0  0
 20 35  1  0  0  0  0
 21 19  2  0  0  0  0
 21 36  1  0  0  0  0
 22 37  1  0  0  0  0
 23 21  1  0  0  0  0
 23 24  1  0  0  0  0
 24 38  1  0  0  0  0
 24 39  1  0  0  0  0
 24 40  1  0  0  0  0
M  END
>  <minimizedAffinity>
-9.05223

$$$$

 OpenBabel07052409263D

 40 42  0  0  0  0  0  0  0  0999 V2000
  -50.4474   -0.8307  -22.7748 N   0  0  0  0  0  0  0  0  0  0  0  0
  -49.8818   -0.9144  -24.0280 C   0  0  0  0  0  0  0  0  0  0  0  0
  -48.9488   -1.6572  -24.3093 O   0  0  0  0  0  0  0  0  0  0  0  0
  -50.5336   -0.0244  -25.0180 C   0  0  0  0  0  0  0  0  0  0  0  0
  -50.2192    1.2855  -24.9716 C   0  0  0  0  0  0  0  0  0  0  0  0
  -51.3212   -0.5443  -26.1255 C   0  0  0  0  0  0  0  0  0  0  0  0
  -50.6057    2.1636  -26.0633 C   0  0  0  0  0  0  0  0  0  0  0  0
  -51.6923    0.2735  -27.1289 C   0  0  0  0  0  0  0  0  0  0  0  0
  -51.6628   -1.8749  -26.0660 O   0  0  0  0  0  0  0  0  0  0  0  0
  -51.3111    1.6854  -27.1083 C   0  0  0  0  0  0  0  0  0  0  0  0
  -51.7321    2.5295  -28.2713 C   0  0  0  0  0  0  0  0  0  0  0  0
  -49.3534    0.7724  -19.1567 C   0  0  0  0  0  0  0  0  0  0  0  0
  -50.2715    1.4157  -19.9134 C   0  0  0  0  0  0  0  0  0  0  0  0
  -48.4764   -0.1943  -19.8258 C   0  0  0  0  0  0  0  0  0  0  0  0
  -50.5414    0.9888  -21.2773 C   0  0  0  0  0  0  0  0  0  0  0  0
  -48.7227   -0.5876  -21.0881 C   0  0  0  0  0  0  0  0  0  0  0  0
  -49.8697   -0.0515  -21.8031 C   0  0  0  0  0  0  0  0  0  0  0  0
  -49.3426    0.9749  -17.7091 C   0  0  0  0  0  0  0  0  0  0  0  0
  -50.3767    1.6152  -17.1171 C   0  0  0  0  0  0  0  0  0  0  0  0
  -48.2274    0.5414  -16.8608 C   0  0  0  0  0  0  0  0  0  0  0  0
  -50.3891    1.8564  -15.6835 C   0  0  0  0  0  0  0  0  0  0  0  0
  -48.2364    0.7652  -15.5353 C   0  0  0  0  0  0  0  0  0  0  0  0
  -49.3601    1.4463  -14.9229 C   0  0  0  0  0  0  0  0  0  0  0  0
  -51.2705   -1.3324  -22.5748 H   0  0  0  0  0  0  0  0  0  0  0  0
  -49.7044    1.6646  -24.1615 H   0  0  0  0  0  0  0  0  0  0  0  0
  -50.3384    3.1601  -26.0386 H   0  0  0  0  0  0  0  0  0  0  0  0
  -52.2479   -0.0974  -27.9155 H   0  0  0  0  0  0  0  0  0  0  0  0
  -51.3779   -2.3999  -25.3441 H   0  0  0  0  0  0  0  0  0  0  0  0
  -51.3894    3.5327  -28.1265 H   0  0  0  0  0  0  0  0  0  0  0  0
  -52.7994    2.5247  -28.3476 H   0  0  0  0  0  0  0  0  0  0  0  0
  -51.3084    2.1342  -29.1708 H   0  0  0  0  0  0  0  0  0  0  0  0
  -50.7862    2.2184  -19.5186 H   0  0  0  0  0  0  0  0  0  0  0  0
  -47.6610   -0.5771  -19.3222 H   0  0  0  0  0  0  0  0  0  0  0  0
  -51.2488    1.4843  -21.8422 H   0  0  0  0  0  0  0  0  0  0  0  0
  -48.0988   -1.2687  -21.5484 H   0  0  0  0  0  0  0  0  0  0  0  0
  -51.1701    1.9379  -17.6928 H   0  0  0  0  0  0  0  0  0  0  0  0
  -47.4228    0.0568  -17.2884 H   0  0  0  0  0  0  0  0  0  0  0  0
  -51.1890    2.3431  -15.2496 H   0  0  0  0  0  0  0  0  0  0  0  0
  -47.4434    0.4522  -14.9537 H   0  0  0  0  0  0  0  0  0  0  0  0
  -49.3697    1.6158  -13.9050 H   0  0  0  0  0  0  0  0  0  0  0  0
  1 17  1  0  0  0  0
  1 24  1  0  0  0  0
  2  1  1  0  0  0  0
  2  4  1  0  0  0  0
  2  3  2  0  0  0  0
  4  5  2  0  0  0  0
  5  7  1  0  0  0  0
  5 25  1  0  0  0  0
  6  4  1  0  0  0  0
  6  9  1  0  0  0  0
  7 10  2  0  0  0  0
  7 26  1  0  0  0  0
  8  6  2  0  0  0  0
  8 27  1  0  0  0  0
  9 28  1  0  0  0  0
 10  8  1  0  0  0  0
 10 11  1  0  0  0  0
 11 29  1  0  0  0  0
 11 30  1  0  0  0  0
 11 31  1  0  0  0  0
 12 18  1  0  0  0  0
 12 14  1  0  0  0  0
 13 12  2  0  0  0  0
 13 32  1  0  0  0  0
 14 16  2  0  0  0  0
 14 33  1  0  0  0  0
 15 13  1  0  0  0  0
 15 34  1  0  0  0  0
 16 17  1  0  0  0  0
 16 35  1  0  0  0  0
 17 15  2  0  0  0  0
 18 19  2  0  0  0  0
 19 21  1  0  0  0  0
 19 36  1  0  0  0  0
 20 18  1  0  0  0  0
 20 37  1  0  0  0  0
 21 23  2  0  0  0  0
 21 38  1  0  0  0  0
 22 20  2  0  0  0  0
 22 39  1  0  0  0  0
 23 22  1  0  0  0  0
 23 40  1  0  0  0  0
M  END
>  <minimizedAffinity>
-9.28071

$$$$

 OpenBabel07052409263D

 40 42  0  0  0  0  0  0  0  0999 V2000
  -49.2357   -0.9038  -22.6225 C   0  0  0  0  0  0  0  0  0  0  0  0
  -49.1438   -1.4927  -23.8385 C   0  0  0  0  0  0  0  0  0  0  0  0
  -48.1465   -1.1399  -21.6658 C   0  0  0  0  0  0  0  0  0  0  0  0
  -47.9227   -2.1686  -24.2503 C   0  0  0  0  0  0  0  0  0  0  0  0
  -47.0124   -1.7523  -22.0529 C   0  0  0  0  0  0  0  0  0  0  0  0
  -46.8502   -2.1806  -23.4367 C   0  0  0  0  0  0  0  0  0  0  0  0
  -50.3602   -0.0147  -22.3358 C   0  0  0  0  0  0  0  0  0  0  0  0
  -50.9908    0.6105  -23.3580 C   0  0  0  0  0  0  0  0  0  0  0  0
  -50.8529    0.2382  -20.9766 C   0  0  0  0  0  0  0  0  0  0  0  0
  -52.1476    1.4611  -23.1173 C   0  0  0  0  0  0  0  0  0  0  0  0
  -51.9065    1.0375  -20.7454 C   0  0  0  0  0  0  0  0  0  0  0  0
  -50.2215   -0.3552  -19.9426 F   0  0  0  0  0  0  0  0  0  0  0  0
  -52.5763    1.6607  -21.8617 C   0  0  0  0  0  0  0  0  0  0  0  0
  -53.6438    2.4427  -21.6136 F   0  0  0  0  0  0  0  0  0  0  0  0
  -45.5792   -2.1720  -23.9640 N   0  0  0  0  0  0  0  0  0  0  0  0
  -44.9326   -3.3573  -24.2287 C   0  0  0  0  0  0  0  0  0  0  0  0
  -44.4649   -4.1011  -23.3697 O   0  0  0  0  0  0  0  0  0  0  0  0
  -44.6701   -3.6133  -25.6682 C   0  0  0  0  0  0  0  0  0  0  0  0
  -45.3358   -4.5874  -26.3174 C   0  0  0  0  0  0  0  0  0  0  0  0
  -43.8719   -2.6676  -26.4406 C   0  0  0  0  0  0  0  0  0  0  0  0
  -45.6166   -4.4268  -27.7358 C   0  0  0  0  0  0  0  0  0  0  0  0
  -44.0432   -2.5802  -27.7711 C   0  0  0  0  0  0  0  0  0  0  0  0
  -42.9163   -1.9232  -25.7853 O   0  0  0  0  0  0  0  0  0  0  0  0
  -44.9992   -3.4584  -28.4452 C   0  0  0  0  0  0  0  0  0  0  0  0
  -45.2194   -3.2374  -29.9100 C   0  0  0  0  0  0  0  0  0  0  0  0
  -49.9504   -1.4617  -24.4816 H   0  0  0  0  0  0  0  0  0  0  0  0
  -48.2520   -0.8329  -20.6862 H   0  0  0  0  0  0  0  0  0  0  0  0
  -47.8788   -2.6395  -25.1675 H   0  0  0  0  0  0  0  0  0  0  0  0
  -46.2571   -1.9188  -21.3696 H   0  0  0  0  0  0  0  0  0  0  0  0
  -50.6462    0.4821  -24.3223 H   0  0  0  0  0  0  0  0  0  0  0  0
  -52.6357    1.9085  -23.9089 H   0  0  0  0  0  0  0  0  0  0  0  0
  -52.2336    1.2043  -19.7809 H   0  0  0  0  0  0  0  0  0  0  0  0
  -45.1315   -1.3157  -24.1523 H   0  0  0  0  0  0  0  0  0  0  0  0
  -45.6424   -5.4357  -25.8159 H   0  0  0  0  0  0  0  0  0  0  0  0
  -46.2900   -5.0553  -28.2012 H   0  0  0  0  0  0  0  0  0  0  0  0
  -43.5000   -1.8933  -28.3171 H   0  0  0  0  0  0  0  0  0  0  0  0
  -42.8164   -2.0019  -24.8570 H   0  0  0  0  0  0  0  0  0  0  0  0
  -45.9372   -3.9429  -30.2732 H   0  0  0  0  0  0  0  0  0  0  0  0
  -44.2951   -3.3674  -30.4332 H   0  0  0  0  0  0  0  0  0  0  0  0
  -45.5832   -2.2440  -30.0701 H   0  0  0  0  0  0  0  0  0  0  0  0
  1  7  1  0  0  0  0
  1  3  1  0  0  0  0
  2  1  2  0  0  0  0
  2 26  1  0  0  0  0
  3  5  2  0  0  0  0
  3 27  1  0  0  0  0
  4  2  1  0  0  0  0
  4 28  1  0  0  0  0
  5  6  1  0  0  0  0
  5 29  1  0  0  0  0
  6  4  2  0  0  0  0
  7  8  2  0  0  0  0
  8 10  1  0  0  0  0
  8 30  1  0  0  0  0
  9  7  1  0  0  0  0
  9 12  1  0  0  0  0
 10 13  2  0  0  0  0
 10 31  1  0  0  0  0
 11  9  2  0  0  0  0
 11 32  1  0  0  0  0
 13 11  1  0  0  0  0
 13 14  1  0  0  0  0
 15  6  1  0  0  0  0
 15 33  1  0  0  0  0
 16 15  1  0  0  0  0
 16 18  1  0  0  0  0
 16 17  2  0  0  0  0
 18 19  2  0  0  0  0
 19 21  1  0  0  0  0
 19 34  1  0  0  0  0
 20 18  1  0  0  0  0
 20 23  1  0  0  0  0
 21 24  2  0  0  0  0
 21 35  1  0  0  0  0
 22 20  2  0  0  0  0
 22 36  1  0  0  0  0
 23 37  1  0  0  0  0
 24 22  1  0  0  0  0
 24 25  1  0  0  0  0
 25 38  1  0  0  0  0
 25 39  1  0  0  0  0
 25 40  1  0  0  0  0
M  END
>  <minimizedAffinity>
-9.46343

$$$$

 OpenBabel07052409263D

 34 35  0  0  0  0  0  0  0  0999 V2000
  -50.1821    0.0019  -21.9896 N   0  0  0  0  0  0  0  0  0  0  0  0
  -50.9996   -0.4348  -23.0065 C   0  0  0  0  0  0  0  0  0  0  0  0
  -51.3324   -1.6062  -23.1590 O   0  0  0  0  0  0  0  0  0  0  0  0
  -51.3396    0.5951  -24.0197 C   0  0  0  0  0  0  0  0  0  0  0  0
  -50.4211    1.5288  -24.3262 C   0  0  0  0  0  0  0  0  0  0  0  0
  -52.4487    0.3793  -24.9376 C   0  0  0  0  0  0  0  0  0  0  0  0
  -50.2226    1.8726  -25.7255 C   0  0  0  0  0  0  0  0  0  0  0  0
  -52.3432    0.7992  -26.2087 C   0  0  0  0  0  0  0  0  0  0  0  0
  -53.5982   -0.2038  -24.4508 O   0  0  0  0  0  0  0  0  0  0  0  0
  -51.1410    1.5102  -26.6459 C   0  0  0  0  0  0  0  0  0  0  0  0
  -51.0118    1.8105  -28.1054 C   0  0  0  0  0  0  0  0  0  0  0  0
  -51.2190    2.1065  -18.6064 C   0  0  0  0  0  0  0  0  0  0  0  0
  -52.0401    2.1346  -19.6729 C   0  0  0  0  0  0  0  0  0  0  0  0
  -50.1528    1.1196  -18.5387 C   0  0  0  0  0  0  0  0  0  0  0  0
  -51.7945    1.2456  -20.7991 C   0  0  0  0  0  0  0  0  0  0  0  0
  -49.9085    0.3215  -19.5941 C   0  0  0  0  0  0  0  0  0  0  0  0
  -50.7117    0.4454  -20.8027 C   0  0  0  0  0  0  0  0  0  0  0  0
  -51.5323    2.7376  -17.4248 O   0  0  0  0  0  0  0  0  0  0  0  0
  -50.8236    2.1434  -16.3414 C   0  0  0  0  0  0  0  0  0  0  0  0
  -49.2056   -0.0036  -22.1144 H   0  0  0  0  0  0  0  0  0  0  0  0
  -49.8701    1.9905  -23.5858 H   0  0  0  0  0  0  0  0  0  0  0  0
  -49.3799    2.3934  -26.0145 H   0  0  0  0  0  0  0  0  0  0  0  0
  -53.1092    0.6207  -26.8768 H   0  0  0  0  0  0  0  0  0  0  0  0
  -53.6387   -0.4859  -23.5582 H   0  0  0  0  0  0  0  0  0  0  0  0
  -50.0929    2.3291  -28.2828 H   0  0  0  0  0  0  0  0  0  0  0  0
  -51.8325    2.4219  -28.4178 H   0  0  0  0  0  0  0  0  0  0  0  0
  -51.0176    0.8953  -28.6597 H   0  0  0  0  0  0  0  0  0  0  0  0
  -52.8414    2.7846  -19.6920 H   0  0  0  0  0  0  0  0  0  0  0  0
  -49.5842    1.0315  -17.6820 H   0  0  0  0  0  0  0  0  0  0  0  0
  -52.4508    1.2287  -21.5953 H   0  0  0  0  0  0  0  0  0  0  0  0
  -49.1518   -0.3786  -19.5472 H   0  0  0  0  0  0  0  0  0  0  0  0
  -51.0779    2.6449  -15.4310 H   0  0  0  0  0  0  0  0  0  0  0  0
  -49.7711    2.2293  -16.5139 H   0  0  0  0  0  0  0  0  0  0  0  0
  -51.0894    1.1097  -16.2655 H   0  0  0  0  0  0  0  0  0  0  0  0
  1 17  1  0  0  0  0
  1 20  1  0  0  0  0
  2  1  1  0  0  0  0
  2  4  1  0  0  0  0
  2  3  2  0  0  0  0
  4  5  2  0  0  0  0
  5  7  1  0  0  0  0
  5 21  1  0  0  0  0
  6  4  1  0  0  0  0
  6  9  1  0  0  0  0
  7 10  2  0  0  0  0
  7 22  1  0  0  0  0
  8  6  2  0  0  0  0
  8 23  1  0  0  0  0
  9 24  1  0  0  0  0
 10  8  1  0  0  0  0
 10 11  1  0  0  0  0
 11 25  1  0  0  0  0
 11 26  1  0  0  0  0
 11 27  1  0  0  0  0
 12 14  1  0  0  0  0
 13 12  2  0  0  0  0
 13 28  1  0  0  0  0
 14 16  2  0  0  0  0
 14 29  1  0  0  0  0
 15 13  1  0  0  0  0
 15 30  1  0  0  0  0
 16 17  1  0  0  0  0
 16 31  1  0  0  0  0
 17 15  2  0  0  0  0
 18 12  1  0  0  0  0
 18 19  1  0  0  0  0
 19 32  1  0  0  0  0
 19 33  1  0  0  0  0
 19 34  1  0  0  0  0
M  END
>  <minimizedAffinity>
-7.53562

$$$$

 OpenBabel07052409263D

 39 40  0  0  0  0  0  0  0  0999 V2000
  -49.1869   -0.0508  -23.0445 N   0  0  0  0  0  0  0  0  0  0  0  0
  -49.4537   -0.7550  -24.1975 C   0  0  0  0  0  0  0  0  0  0  0  0
  -49.2535   -1.9567  -24.3306 O   0  0  0  0  0  0  0  0  0  0  0  0
  -49.9971    0.0949  -25.2815 C   0  0  0  0  0  0  0  0  0  0  0  0
  -49.8510    1.4279  -25.1563 C   0  0  0  0  0  0  0  0  0  0  0  0
  -50.7890   -0.4499  -26.3738 C   0  0  0  0  0  0  0  0  0  0  0  0
  -50.4837    2.3220  -26.1107 C   0  0  0  0  0  0  0  0  0  0  0  0
  -51.3807    0.3794  -27.2561 C   0  0  0  0  0  0  0  0  0  0  0  0
  -50.8786   -1.8198  -26.4450 O   0  0  0  0  0  0  0  0  0  0  0  0
  -51.2245    1.8278  -27.1233 C   0  0  0  0  0  0  0  0  0  0  0  0
  -51.9057    2.6916  -28.1387 C   0  0  0  0  0  0  0  0  0  0  0  0
  -50.8181    0.5599  -19.3693 C   0  0  0  0  0  0  0  0  0  0  0  0
  -50.2364   -0.6343  -19.6124 C   0  0  0  0  0  0  0  0  0  0  0  0
  -51.3084    1.3323  -20.5119 C   0  0  0  0  0  0  0  0  0  0  0  0
  -49.8257   -0.9876  -20.9621 C   0  0  0  0  0  0  0  0  0  0  0  0
  -50.9348    0.9987  -21.7613 C   0  0  0  0  0  0  0  0  0  0  0  0
  -50.0451   -0.1298  -21.9753 C   0  0  0  0  0  0  0  0  0  0  0  0
  -50.8748    1.1607  -17.9779 C   0  0  0  0  0  0  0  0  0  0  0  0
  -49.5217    1.1112  -17.2636 C   0  0  0  0  0  0  0  0  0  0  0  0
  -51.4298    2.5875  -17.9983 C   0  0  0  0  0  0  0  0  0  0  0  0
  -48.3798    0.5100  -22.9866 H   0  0  0  0  0  0  0  0  0  0  0  0
  -49.2892    1.8145  -24.3818 H   0  0  0  0  0  0  0  0  0  0  0  0
  -50.3654    3.3425  -26.0130 H   0  0  0  0  0  0  0  0  0  0  0  0
  -51.9457   -0.0085  -28.0277 H   0  0  0  0  0  0  0  0  0  0  0  0
  -50.4474   -2.3514  -25.8051 H   0  0  0  0  0  0  0  0  0  0  0  0
  -51.7080    3.7206  -27.9218 H   0  0  0  0  0  0  0  0  0  0  0  0
  -52.9608    2.5164  -28.1058 H   0  0  0  0  0  0  0  0  0  0  0  0
  -51.5352    2.4552  -29.1143 H   0  0  0  0  0  0  0  0  0  0  0  0
  -50.0827   -1.2986  -18.8377 H   0  0  0  0  0  0  0  0  0  0  0  0
  -51.9410    2.1333  -20.3595 H   0  0  0  0  0  0  0  0  0  0  0  0
  -49.3670   -1.8943  -21.1424 H   0  0  0  0  0  0  0  0  0  0  0  0
  -51.2800    1.5441  -22.5665 H   0  0  0  0  0  0  0  0  0  0  0  0
  -51.5513    0.5512  -17.4160 H   0  0  0  0  0  0  0  0  0  0  0  0
  -48.8145    1.7112  -17.7972 H   0  0  0  0  0  0  0  0  0  0  0  0
  -49.1749    0.0996  -17.2262 H   0  0  0  0  0  0  0  0  0  0  0  0
  -49.6299    1.4881  -16.2681 H   0  0  0  0  0  0  0  0  0  0  0  0
  -50.7699    3.2190  -18.5557 H   0  0  0  0  0  0  0  0  0  0  0  0
  -51.5111    2.9529  -16.9959 H   0  0  0  0  0  0  0  0  0  0  0  0
  -52.3962    2.5877  -18.4575 H   0  0  0  0  0  0  0  0  0  0  0  0
  1 17  1  0  0  0  0
  1 21  1  0  0  0  0
  2  1  1  0  0  0  0
  2  4  1  0  0  0  0
  2  3  2  0  0  0  0
  4  5  2  0  0  0  0
  5  7  1  0  0  0  0
  5 22  1  0  0  0  0
  6  4  1  0  0  0  0
  6  9  1  0  0  0  0
  7 10  2  0  0  0  0
  7 23  1  0  0  0  0
  8  6  2  0  0  0  0
  8 24  1  0  0  0  0
  9 25  1  0  0  0  0
 10  8  1  0  0  0  0
 10 11  1  0  0  0  0
 11 26  1  0  0  0  0
 11 27  1  0  0  0  0
 11 28  1  0  0  0  0
 12 14  1  0  0  0  0
 13 12  2  0  0  0  0
 13 29  1  0  0  0  0
 14 16  2  0  0  0  0
 14 30  1  0  0  0  0
 15 13  1  0  0  0  0
 15 31  1  0  0  0  0
 16 17  1  0  0  0  0
 16 32  1  0  0  0  0
 17 15  2  0  0  0  0
 18 12  1  0  0  0  0
 18 19  1  0  0  0  0
 18 20  1  0  0  0  0
 18 33  1  0  0  0  0
 19 34  1  0  0  0  0
 19 35  1  0  0  0  0
 19 36  1  0  0  0  0
 20 37  1  0  0  0  0
 20 38  1  0  0  0  0
 20 39  1  0  0  0  0
M  END
>  <minimizedAffinity>
-7.87419

$$$$

 OpenBabel07052409263D

 19 19  0  0  0  0  0  0  0  0999 V2000
  -50.6936    1.2207  -24.2998 C   0  0  0  0  0  0  0  0  0  0  0  0
  -51.5903    1.5286  -23.3420 C   0  0  0  0  0  0  0  0  0  0  0  0
  -49.7498    0.1284  -24.0786 C   0  0  0  0  0  0  0  0  0  0  0  0
  -51.3389    1.0995  -21.9750 C   0  0  0  0  0  0  0  0  0  0  0  0
  -49.5788   -0.3557  -22.8291 C   0  0  0  0  0  0  0  0  0  0  0  0
  -49.0964   -0.3928  -25.1788 O   0  0  0  0  0  0  0  0  0  0  0  0
  -52.4089    1.8097  -20.6263 Br  0  0  0  0  0  0  0  0  0  0  0  0
  -50.3695    0.1966  -21.7315 C   0  0  0  0  0  0  0  0  0  0  0  0
  -48.4019   -1.7446  -22.4108 Br  0  0  0  0  0  0  0  0  0  0  0  0
  -50.5211    2.1358  -25.4435 C   0  0  0  0  0  0  0  0  0  0  0  0
  -50.2272    3.3142  -25.2972 O   0  0  0  0  0  0  0  0  0  0  0  0
  -50.8080    1.5245  -26.6159 O   0  0  0  0  0  0  0  0  0  0  0  0
  -51.1755    2.4461  -27.6407 C   0  0  0  0  0  0  0  0  0  0  0  0
  -52.4430    2.0611  -23.5750 H   0  0  0  0  0  0  0  0  0  0  0  0
  -49.2442   -0.0265  -26.0285 H   0  0  0  0  0  0  0  0  0  0  0  0
  -50.1839   -0.1072  -20.7629 H   0  0  0  0  0  0  0  0  0  0  0  0
  -51.3907    1.9105  -28.5416 H   0  0  0  0  0  0  0  0  0  0  0  0
  -50.3684    3.1267  -27.8145 H   0  0  0  0  0  0  0  0  0  0  0  0
  -52.0431    2.9924  -27.3347 H   0  0  0  0  0  0  0  0  0  0  0  0
  1  2  2  0  0  0  0
  2  4  1  0  0  0  0
  2 14  1  0  0  0  0
  3  1  1  0  0  0  0
  3  6  1  0  0  0  0
  4  7  1  0  0  0  0
  4  8  2  0  0  0  0
  5  3  2  0  0  0  0
  5  9  1  0  0  0  0
  6 15  1  0  0  0  0
  8  5  1  0  0  0  0
  8 16  1  0  0  0  0
 10 12  1  0  0  0  0
 10  1  1  0  0  0  0
 10 11  2  0  0  0  0
 12 13  1  0  0  0  0
 13 17  1  0  0  0  0
 13 18  1  0  0  0  0
 13 19  1  0  0  0  0
M  END
>  <minimizedAffinity>
-5.91577

$$$$

 OpenBabel07052409263D

 27 28  0  0  0  0  0  0  0  0999 V2000
  -50.9430    0.3573  -24.2162 N   0  0  0  0  0  0  0  0  0  0  0  0
  -49.9390   -0.3066  -23.5418 C   0  0  0  0  0  0  0  0  0  0  0  0
  -49.0306   -0.9490  -24.0514 O   0  0  0  0  0  0  0  0  0  0  0  0
  -50.0933   -0.1767  -22.0721 C   0  0  0  0  0  0  0  0  0  0  0  0
  -51.0996    0.6088  -21.6393 C   0  0  0  0  0  0  0  0  0  0  0  0
  -49.0022   -0.5250  -21.1730 C   0  0  0  0  0  0  0  0  0  0  0  0
  -50.9829    1.2892  -20.3582 C   0  0  0  0  0  0  0  0  0  0  0  0
  -48.9149    0.0656  -19.9615 C   0  0  0  0  0  0  0  0  0  0  0  0
  -48.1261   -1.4839  -21.6361 O   0  0  0  0  0  0  0  0  0  0  0  0
  -52.3245    2.4921  -19.8826 Br  0  0  0  0  0  0  0  0  0  0  0  0
  -49.9315    1.0296  -19.5570 C   0  0  0  0  0  0  0  0  0  0  0  0
  -47.5537   -0.3186  -18.7430 Br  0  0  0  0  0  0  0  0  0  0  0  0
  -50.6539    1.0869  -25.3522 C   0  0  0  0  0  0  0  0  0  0  0  0
  -50.2559    2.3702  -25.2349 C   0  0  0  0  0  0  0  0  0  0  0  0
  -51.1516    0.6168  -26.6546 C   0  0  0  0  0  0  0  0  0  0  0  0
  -50.6130    3.3435  -26.2518 C   0  0  0  0  0  0  0  0  0  0  0  0
  -51.4022    1.5153  -27.6290 C   0  0  0  0  0  0  0  0  0  0  0  0
  -51.4144   -1.2131  -26.9386 Br  0  0  0  0  0  0  0  0  0  0  0  0
  -51.1641    2.9312  -27.4058 C   0  0  0  0  0  0  0  0  0  0  0  0
  -51.8693    0.3106  -23.8861 H   0  0  0  0  0  0  0  0  0  0  0  0
  -51.9488    0.7271  -22.2137 H   0  0  0  0  0  0  0  0  0  0  0  0
  -48.2443   -1.8538  -22.4888 H   0  0  0  0  0  0  0  0  0  0  0  0
  -49.8449    1.5161  -18.6510 H   0  0  0  0  0  0  0  0  0  0  0  0
  -49.6952    2.6617  -24.4190 H   0  0  0  0  0  0  0  0  0  0  0  0
  -50.4441    4.3484  -26.0887 H   0  0  0  0  0  0  0  0  0  0  0  0
  -51.7658    1.1946  -28.5400 H   0  0  0  0  0  0  0  0  0  0  0  0
  -51.4178    3.6189  -28.1323 H   0  0  0  0  0  0  0  0  0  0  0  0
  1 13  1  0  0  0  0
  1 20  1  0  0  0  0
  2  1  1  0  0  0  0
  2  4  1  0  0  0  0
  2  3  2  0  0  0  0
  4  5  2  0  0  0  0
  5  7  1  0  0  0  0
  5 21  1  0  0  0  0
  6  4  1  0  0  0  0
  6  9  1  0  0  0  0
  7 10  1  0  0  0  0
  7 11  2  0  0  0  0
  8  6  2  0  0  0  0
  8 12  1  0  0  0  0
  9 22  1  0  0  0  0
 11  8  1  0  0  0  0
 11 23  1  0  0  0  0
 13 14  2  0  0  0  0
 14 16  1  0  0  0  0
 14 24  1  0  0  0  0
 15 13  1  0  0  0  0
 15 18  1  0  0  0  0
 16 19  2  0  0  0  0
 16 25  1  0  0  0  0
 17 15  2  0  0  0  0
 17 26  1  0  0  0  0
 19 17  1  0  0  0  0
 19 27  1  0  0  0  0
M  END
>  <minimizedAffinity>
-7.37235

$$$$

 OpenBabel07052409263D

 30 31  0  0  0  0  0  0  0  0999 V2000
  -49.3539   -0.4559  -23.8988 N   0  0  0  0  0  0  0  0  0  0  0  0
  -49.7777   -1.1291  -22.7754 C   0  0  0  0  0  0  0  0  0  0  0  0
  -50.2528   -2.2580  -22.7904 O   0  0  0  0  0  0  0  0  0  0  0  0
  -49.5778   -0.3591  -21.5244 C   0  0  0  0  0  0  0  0  0  0  0  0
  -50.5122    0.5662  -21.2275 C   0  0  0  0  0  0  0  0  0  0  0  0
  -48.5992   -0.7611  -20.5251 C   0  0  0  0  0  0  0  0  0  0  0  0
  -50.5893    1.1114  -19.8810 C   0  0  0  0  0  0  0  0  0  0  0  0
  -48.6569   -0.2419  -19.2792 C   0  0  0  0  0  0  0  0  0  0  0  0
  -47.6455   -1.6633  -20.9447 O   0  0  0  0  0  0  0  0  0  0  0  0
  -51.9393    2.3415  -19.5116 Br  0  0  0  0  0  0  0  0  0  0  0  0
  -49.6985    0.7228  -18.9490 C   0  0  0  0  0  0  0  0  0  0  0  0
  -47.4459   -0.7021  -17.9340 Br  0  0  0  0  0  0  0  0  0  0  0  0
  -50.2467    0.2717  -24.6490 C   0  0  0  0  0  0  0  0  0  0  0  0
  -50.2272    1.6159  -24.6100 C   0  0  0  0  0  0  0  0  0  0  0  0
  -50.9021   -0.3944  -25.7657 C   0  0  0  0  0  0  0  0  0  0  0  0
  -50.5745    2.3814  -25.7959 C   0  0  0  0  0  0  0  0  0  0  0  0
  -51.3008    0.3178  -26.8359 C   0  0  0  0  0  0  0  0  0  0  0  0
  -51.0950    1.7633  -26.8760 C   0  0  0  0  0  0  0  0  0  0  0  0
  -51.4869    2.4810  -28.1294 C   0  0  0  0  0  0  0  0  0  0  0  0
  -48.4072   -0.4957  -24.1661 H   0  0  0  0  0  0  0  0  0  0  0  0
  -51.1714    0.8871  -21.9539 H   0  0  0  0  0  0  0  0  0  0  0  0
  -47.6608   -1.9862  -21.8242 H   0  0  0  0  0  0  0  0  0  0  0  0
  -49.7536    1.1107  -17.9943 H   0  0  0  0  0  0  0  0  0  0  0  0
  -49.9659    2.1035  -23.7388 H   0  0  0  0  0  0  0  0  0  0  0  0
  -51.0611   -1.4137  -25.7365 H   0  0  0  0  0  0  0  0  0  0  0  0
  -50.4222    3.4020  -25.8116 H   0  0  0  0  0  0  0  0  0  0  0  0
  -51.7536   -0.1592  -27.6312 H   0  0  0  0  0  0  0  0  0  0  0  0
  -51.2830    3.5258  -28.0208 H   0  0  0  0  0  0  0  0  0  0  0  0
  -52.5318    2.3384  -28.3102 H   0  0  0  0  0  0  0  0  0  0  0  0
  -50.9260    2.0920  -28.9534 H   0  0  0  0  0  0  0  0  0  0  0  0
  1 13  1  0  0  0  0
  1 20  1  0  0  0  0
  2  1  1  0  0  0  0
  2  4  1  0  0  0  0
  2  3  2  0  0  0  0
  4  5  2  0  0  0  0
  5  7  1  0  0  0  0
  5 21  1  0  0  0  0
  6  4  1  0  0  0  0
  6  9  1  0  0  0  0
  7 10  1  0  0  0  0
  7 11  2  0  0  0  0
  8  6  2  0  0  0  0
  8 12  1  0  0  0  0
  9 22  1  0  0  0  0
 11  8  1  0  0  0  0
 11 23  1  0  0  0  0
 13 14  2  0  0  0  0
 14 16  1  0  0  0  0
 14 24  1  0  0  0  0
 15 13  1  0  0  0  0
 15 25  1  0  0  0  0
 16 18  2  0  0  0  0
 16 26  1  0  0  0  0
 17 15  2  0  0  0  0
 17 27  1  0  0  0  0
 18 17  1  0  0  0  0
 18 19  1  0  0  0  0
 19 28  1  0  0  0  0
 19 29  1  0  0  0  0
 19 30  1  0  0  0  0
M  END
>  <minimizedAffinity>
-7.38122

$$$$

 OpenBabel07052409263D

 27 28  0  0  0  0  0  0  0  0999 V2000
  -51.7642    0.1806  -24.3184 N   0  0  0  0  0  0  0  0  0  0  0  0
  -51.0000   -0.5791  -23.4641 C   0  0  0  0  0  0  0  0  0  0  0  0
  -50.9488   -1.8044  -23.4854 O   0  0  0  0  0  0  0  0  0  0  0  0
  -50.3247    0.1768  -22.3814 C   0  0  0  0  0  0  0  0  0  0  0  0
  -50.9723    1.2237  -21.8366 C   0  0  0  0  0  0  0  0  0  0  0  0
  -49.1755   -0.3952  -21.6930 C   0  0  0  0  0  0  0  0  0  0  0  0
  -50.8692    1.4354  -20.4010 C   0  0  0  0  0  0  0  0  0  0  0  0
  -48.9879   -0.1191  -20.3842 C   0  0  0  0  0  0  0  0  0  0  0  0
  -48.3130   -1.1734  -22.4370 O   0  0  0  0  0  0  0  0  0  0  0  0
  -52.0705    2.6136  -19.6042 Br  0  0  0  0  0  0  0  0  0  0  0  0
  -49.9157    0.7846  -19.7049 C   0  0  0  0  0  0  0  0  0  0  0  0
  -47.5703   -0.8011  -19.3780 Br  0  0  0  0  0  0  0  0  0  0  0  0
  -51.2309    0.8011  -25.4257 C   0  0  0  0  0  0  0  0  0  0  0  0
  -50.7211    2.0453  -25.3446 C   0  0  0  0  0  0  0  0  0  0  0  0
  -51.3984    0.1930  -26.7487 C   0  0  0  0  0  0  0  0  0  0  0  0
  -50.7130    2.8990  -26.5212 C   0  0  0  0  0  0  0  0  0  0  0  0
  -51.2978    0.9589  -27.8520 C   0  0  0  0  0  0  0  0  0  0  0  0
  -51.6953   -1.5030  -26.8816 Cl  0  0  0  0  0  0  0  0  0  0  0  0
  -50.9956    2.3768  -27.7279 C   0  0  0  0  0  0  0  0  0  0  0  0
  -52.7253    0.2843  -24.1319 H   0  0  0  0  0  0  0  0  0  0  0  0
  -51.5300    1.8625  -22.4248 H   0  0  0  0  0  0  0  0  0  0  0  0
  -48.4902   -1.3342  -23.3429 H   0  0  0  0  0  0  0  0  0  0  0  0
  -49.8399    0.9251  -18.6853 H   0  0  0  0  0  0  0  0  0  0  0  0
  -50.3379    2.3910  -24.4509 H   0  0  0  0  0  0  0  0  0  0  0  0
  -50.4911    3.9028  -26.4308 H   0  0  0  0  0  0  0  0  0  0  0  0
  -51.4350    0.5402  -28.7852 H   0  0  0  0  0  0  0  0  0  0  0  0
  -50.9981    2.9809  -28.5646 H   0  0  0  0  0  0  0  0  0  0  0  0
  1 13  1  0  0  0  0
  1 20  1  0  0  0  0
  2  1  1  0  0  0  0
  2  4  1  0  0  0  0
  2  3  2  0  0  0  0
  4  5  2  0  0  0  0
  5  7  1  0  0  0  0
  5 21  1  0  0  0  0
  6  4  1  0  0  0  0
  6  9  1  0  0  0  0
  7 10  1  0  0  0  0
  7 11  2  0  0  0  0
  8  6  2  0  0  0  0
  8 12  1  0  0  0  0
  9 22  1  0  0  0  0
 11  8  1  0  0  0  0
 11 23  1  0  0  0  0
 13 14  2  0  0  0  0
 14 16  1  0  0  0  0
 14 24  1  0  0  0  0
 15 13  1  0  0  0  0
 15 18  1  0  0  0  0
 16 19  2  0  0  0  0
 16 25  1  0  0  0  0
 17 15  2  0  0  0  0
 17 26  1  0  0  0  0
 19 17  1  0  0  0  0
 19 27  1  0  0  0  0
M  END
>  <minimizedAffinity>
-7.44180

$$$$

 OpenBabel07052409263D

 27 28  0  0  0  0  0  0  0  0999 V2000
  -51.3097    1.9532  -22.3508 N   0  0  0  0  0  0  0  0  0  0  0  0
  -52.0068    1.4945  -21.2538 C   0  0  0  0  0  0  0  0  0  0  0  0
  -53.1417    1.8659  -20.9779 O   0  0  0  0  0  0  0  0  0  0  0  0
  -51.2140    0.5981  -20.3740 C   0  0  0  0  0  0  0  0  0  0  0  0
  -50.3044   -0.1702  -21.0077 C   0  0  0  0  0  0  0  0  0  0  0  0
  -51.0135    0.9297  -18.9700 C   0  0  0  0  0  0  0  0  0  0  0  0
  -48.9835   -0.3483  -20.4235 C   0  0  0  0  0  0  0  0  0  0  0  0
  -49.8193    0.6892  -18.3862 C   0  0  0  0  0  0  0  0  0  0  0  0
  -52.1052    1.4568  -18.3180 O   0  0  0  0  0  0  0  0  0  0  0  0
  -47.6759   -1.1808  -21.4568 Br  0  0  0  0  0  0  0  0  0  0  0  0
  -48.7528    0.0675  -19.1630 C   0  0  0  0  0  0  0  0  0  0  0  0
  -49.4684    1.0832  -16.5956 Br  0  0  0  0  0  0  0  0  0  0  0  0
  -51.2840    1.2025  -23.5043 C   0  0  0  0  0  0  0  0  0  0  0  0
  -52.4155    0.7465  -24.0763 C   0  0  0  0  0  0  0  0  0  0  0  0
  -50.0500    1.2219  -24.2764 C   0  0  0  0  0  0  0  0  0  0  0  0
  -52.4587    0.5073  -25.5111 C   0  0  0  0  0  0  0  0  0  0  0  0
  -50.0737    0.9405  -25.5930 C   0  0  0  0  0  0  0  0  0  0  0  0
  -51.3306    0.5987  -26.2379 C   0  0  0  0  0  0  0  0  0  0  0  0
  -51.3320    0.3031  -27.9326 Cl  0  0  0  0  0  0  0  0  0  0  0  0
  -50.8326    2.8134  -22.3096 H   0  0  0  0  0  0  0  0  0  0  0  0
  -50.5435   -0.6287  -21.9008 H   0  0  0  0  0  0  0  0  0  0  0  0
  -52.9057    1.5987  -18.7839 H   0  0  0  0  0  0  0  0  0  0  0  0
  -47.8171   -0.0544  -18.7451 H   0  0  0  0  0  0  0  0  0  0  0  0
  -53.2508    0.5670  -23.4974 H   0  0  0  0  0  0  0  0  0  0  0  0
  -49.1563    1.4515  -23.8143 H   0  0  0  0  0  0  0  0  0  0  0  0
  -53.3519    0.2683  -25.9695 H   0  0  0  0  0  0  0  0  0  0  0  0
  -49.2010    0.9675  -26.1432 H   0  0  0  0  0  0  0  0  0  0  0  0
  1 13  1  0  0  0  0
  1 20  1  0  0  0  0
  2  1  1  0  0  0  0
  2  4  1  0  0  0  0
  2  3  2  0  0  0  0
  4  5  2  0  0  0  0
  5  7  1  0  0  0  0
  5 21  1  0  0  0  0
  6  4  1  0  0  0  0
  6  9  1  0  0  0  0
  7 10  1  0  0  0  0
  7 11  2  0  0  0  0
  8  6  2  0  0  0  0
  8 12  1  0  0  0  0
  9 22  1  0  0  0  0
 11  8  1  0  0  0  0
 11 23  1  0  0  0  0
 13 14  2  0  0  0  0
 14 16  1  0  0  0  0
 14 24  1  0  0  0  0
 15 13  1  0  0  0  0
 15 25  1  0  0  0  0
 16 18  2  0  0  0  0
 16 26  1  0  0  0  0
 17 15  2  0  0  0  0
 17 27  1  0  0  0  0
 18 17  1  0  0  0  0
 18 19  1  0  0  0  0
M  END
>  <minimizedAffinity>
-7.58422

$$$$

 OpenBabel07052409263D

 27 28  0  0  0  0  0  0  0  0999 V2000
  -44.0841   -2.9324  -28.8156 N   0  0  0  0  0  0  0  0  0  0  0  0
  -45.0649   -2.9020  -29.7818 C   0  0  0  0  0  0  0  0  0  0  0  0
  -45.5991   -1.8750  -30.1825 O   0  0  0  0  0  0  0  0  0  0  0  0
  -45.3950   -4.2447  -30.3181 C   0  0  0  0  0  0  0  0  0  0  0  0
  -44.3665   -4.9430  -30.8402 C   0  0  0  0  0  0  0  0  0  0  0  0
  -46.6075   -4.9370  -29.9064 C   0  0  0  0  0  0  0  0  0  0  0  0
  -44.3667   -6.3958  -30.7600 C   0  0  0  0  0  0  0  0  0  0  0  0
  -46.6362   -6.2873  -29.8842 C   0  0  0  0  0  0  0  0  0  0  0  0
  -47.6774   -4.1321  -29.5813 O   0  0  0  0  0  0  0  0  0  0  0  0
  -42.8412   -7.3023  -31.3283 Br  0  0  0  0  0  0  0  0  0  0  0  0
  -45.4569   -7.0384  -30.2983 C   0  0  0  0  0  0  0  0  0  0  0  0
  -48.1444   -7.2605  -29.3700 Br  0  0  0  0  0  0  0  0  0  0  0  0
  -44.4217   -2.9677  -27.4848 C   0  0  0  0  0  0  0  0  0  0  0  0
  -44.9534   -4.0771  -26.9396 C   0  0  0  0  0  0  0  0  0  0  0  0
  -43.9684   -1.8871  -26.6211 C   0  0  0  0  0  0  0  0  0  0  0  0
  -44.9707   -4.2434  -25.4945 C   0  0  0  0  0  0  0  0  0  0  0  0
  -44.0121   -2.0286  -25.2831 C   0  0  0  0  0  0  0  0  0  0  0  0
  -44.5180   -3.2604  -24.6928 C   0  0  0  0  0  0  0  0  0  0  0  0
  -44.5189   -3.4074  -22.8354 Br  0  0  0  0  0  0  0  0  0  0  0  0
  -43.1358   -2.9288  -29.0802 H   0  0  0  0  0  0  0  0  0  0  0  0
  -43.5826   -4.4492  -31.2947 H   0  0  0  0  0  0  0  0  0  0  0  0
  -47.5904   -3.1999  -29.6175 H   0  0  0  0  0  0  0  0  0  0  0  0
  -45.4575   -8.0686  -30.2373 H   0  0  0  0  0  0  0  0  0  0  0  0
  -45.3495   -4.8110  -27.5475 H   0  0  0  0  0  0  0  0  0  0  0  0
  -43.6130   -1.0112  -27.0352 H   0  0  0  0  0  0  0  0  0  0  0  0
  -45.3313   -5.1180  -25.0820 H   0  0  0  0  0  0  0  0  0  0  0  0
  -43.6862   -1.2621  -24.6738 H   0  0  0  0  0  0  0  0  0  0  0  0
  1 13  1  0  0  0  0
  1 20  1  0  0  0  0
  2  1  1  0  0  0  0
  2  4  1  0  0  0  0
  2  3  2  0  0  0  0
  4  5  2  0  0  0  0
  5  7  1  0  0  0  0
  5 21  1  0  0  0  0
  6  4  1  0  0  0  0
  6  9  1  0  0  0  0
  7 10  1  0  0  0  0
  7 11  2  0  0  0  0
  8  6  2  0  0  0  0
  8 12  1  0  0  0  0
  9 22  1  0  0  0  0
 11  8  1  0  0  0  0
 11 23  1  0  0  0  0
 13 14  2  0  0  0  0
 14 16  1  0  0  0  0
 14 24  1  0  0  0  0
 15 13  1  0  0  0  0
 15 25  1  0  0  0  0
 16 18  2  0  0  0  0
 16 26  1  0  0  0  0
 17 15  2  0  0  0  0
 17 27  1  0  0  0  0
 18 17  1  0  0  0  0
 18 19  1  0  0  0  0
M  END
>  <minimizedAffinity>
-7.04583

$$$$

 OpenBabel07052409263D

 28 29  0  0  0  0  0  0  0  0999 V2000
  -49.8934   -1.0326  -24.5314 N   0  0  0  0  0  0  0  0  0  0  0  0
  -50.4949   -1.1668  -23.2989 C   0  0  0  0  0  0  0  0  0  0  0  0
  -51.2231   -2.1085  -23.0066 O   0  0  0  0  0  0  0  0  0  0  0  0
  -50.0834   -0.1711  -22.2793 C   0  0  0  0  0  0  0  0  0  0  0  0
  -48.9789   -0.4405  -21.5571 C   0  0  0  0  0  0  0  0  0  0  0  0
  -51.0429    0.8047  -21.7791 C   0  0  0  0  0  0  0  0  0  0  0  0
  -49.0043   -0.1890  -20.1243 C   0  0  0  0  0  0  0  0  0  0  0  0
  -51.0149    1.1476  -20.4727 C   0  0  0  0  0  0  0  0  0  0  0  0
  -51.9213    1.3534  -22.6895 O   0  0  0  0  0  0  0  0  0  0  0  0
  -47.6480   -0.9266  -19.0845 Br  0  0  0  0  0  0  0  0  0  0  0  0
  -49.9887    0.5713  -19.6053 C   0  0  0  0  0  0  0  0  0  0  0  0
  -52.1984    2.3667  -19.6994 Br  0  0  0  0  0  0  0  0  0  0  0  0
  -50.3926   -0.1322  -25.4523 C   0  0  0  0  0  0  0  0  0  0  0  0
  -50.0444    1.1695  -25.4573 C   0  0  0  0  0  0  0  0  0  0  0  0
  -51.3296   -0.6281  -26.4584 C   0  0  0  0  0  0  0  0  0  0  0  0
  -50.4777    2.0318  -26.5462 C   0  0  0  0  0  0  0  0  0  0  0  0
  -51.7589    0.1785  -27.4424 C   0  0  0  0  0  0  0  0  0  0  0  0
  -51.7429   -1.9369  -26.3616 O   0  0  0  0  0  0  0  0  0  0  0  0
  -51.2997    1.5558  -27.4988 C   0  0  0  0  0  0  0  0  0  0  0  0
  -49.1063   -1.5796  -24.7560 H   0  0  0  0  0  0  0  0  0  0  0  0
  -48.1321   -0.8175  -22.0107 H   0  0  0  0  0  0  0  0  0  0  0  0
  -51.8989    1.0801  -23.5855 H   0  0  0  0  0  0  0  0  0  0  0  0
  -50.0183    0.7478  -18.5889 H   0  0  0  0  0  0  0  0  0  0  0  0
  -49.4713    1.5542  -24.6901 H   0  0  0  0  0  0  0  0  0  0  0  0
  -50.1537    3.0107  -26.5878 H   0  0  0  0  0  0  0  0  0  0  0  0
  -52.4129   -0.1787  -28.1563 H   0  0  0  0  0  0  0  0  0  0  0  0
  -51.4273   -2.4775  -25.6644 H   0  0  0  0  0  0  0  0  0  0  0  0
  -51.6044    2.1696  -28.2705 H   0  0  0  0  0  0  0  0  0  0  0  0
  1 13  1  0  0  0  0
  1 20  1  0  0  0  0
  2  1  1  0  0  0  0
  2  4  1  0  0  0  0
  2  3  2  0  0  0  0
  4  5  2  0  0  0  0
  5  7  1  0  0  0  0
  5 21  1  0  0  0  0
  6  4  1  0  0  0  0
  6  9  1  0  0  0  0
  7 10  1  0  0  0  0
  7 11  2  0  0  0  0
  8  6  2  0  0  0  0
  8 12  1  0  0  0  0
  9 22  1  0  0  0  0
 11  8  1  0  0  0  0
 11 23  1  0  0  0  0
 13 14  2  0  0  0  0
 14 16  1  0  0  0  0
 14 24  1  0  0  0  0
 15 13  1  0  0  0  0
 15 18  1  0  0  0  0
 16 19  2  0  0  0  0
 16 25  1  0  0  0  0
 17 15  2  0  0  0  0
 17 26  1  0  0  0  0
 18 27  1  0  0  0  0
 19 17  1  0  0  0  0
 19 28  1  0  0  0  0
M  END
>  <minimizedAffinity>
-7.71930

$$$$

 OpenBabel07052409263D

 31 32  0  0  0  0  0  0  0  0999 V2000
  -50.9048    1.8426  -21.4770 N   0  0  0  0  0  0  0  0  0  0  0  0
  -51.8899    1.1900  -22.1815 C   0  0  0  0  0  0  0  0  0  0  0  0
  -53.0458    1.5873  -22.2946 O   0  0  0  0  0  0  0  0  0  0  0  0
  -51.4402    0.0027  -22.9518 C   0  0  0  0  0  0  0  0  0  0  0  0
  -50.4005   -0.7165  -22.4884 C   0  0  0  0  0  0  0  0  0  0  0  0
  -51.8904   -0.1928  -24.3243 C   0  0  0  0  0  0  0  0  0  0  0  0
  -49.4439   -1.2526  -23.4433 C   0  0  0  0  0  0  0  0  0  0  0  0
  -51.0701   -0.8052  -25.2058 C   0  0  0  0  0  0  0  0  0  0  0  0
  -53.1630    0.2349  -24.6428 O   0  0  0  0  0  0  0  0  0  0  0  0
  -47.8136   -1.8722  -22.7917 Br  0  0  0  0  0  0  0  0  0  0  0  0
  -49.7688   -1.2932  -24.7507 C   0  0  0  0  0  0  0  0  0  0  0  0
  -51.5138   -1.1069  -26.9941 Br  0  0  0  0  0  0  0  0  0  0  0  0
  -50.5936    1.4734  -20.1870 C   0  0  0  0  0  0  0  0  0  0  0  0
  -49.5059    0.7407  -19.8879 C   0  0  0  0  0  0  0  0  0  0  0  0
  -51.4521    1.9526  -19.1083 C   0  0  0  0  0  0  0  0  0  0  0  0
  -49.0486    0.6578  -18.5103 C   0  0  0  0  0  0  0  0  0  0  0  0
  -51.0653    1.8215  -17.8257 C   0  0  0  0  0  0  0  0  0  0  0  0
  -52.6381    2.5304  -19.5021 O   0  0  0  0  0  0  0  0  0  0  0  0
  -49.7913    1.1754  -17.5098 C   0  0  0  0  0  0  0  0  0  0  0  0
  -49.3834    1.1196  -16.0700 C   0  0  0  0  0  0  0  0  0  0  0  0
  -50.4153    2.5841  -21.9009 H   0  0  0  0  0  0  0  0  0  0  0  0
  -50.2850   -0.8838  -21.4766 H   0  0  0  0  0  0  0  0  0  0  0  0
  -53.6923    0.6549  -23.9936 H   0  0  0  0  0  0  0  0  0  0  0  0
  -49.0950   -1.6711  -25.4350 H   0  0  0  0  0  0  0  0  0  0  0  0
  -48.9980    0.2394  -20.6334 H   0  0  0  0  0  0  0  0  0  0  0  0
  -48.1491    0.1996  -18.2961 H   0  0  0  0  0  0  0  0  0  0  0  0
  -51.6668    2.1764  -17.0659 H   0  0  0  0  0  0  0  0  0  0  0  0
  -52.8497    2.5917  -20.4128 H   0  0  0  0  0  0  0  0  0  0  0  0
  -48.4390    0.6237  -15.9858 H   0  0  0  0  0  0  0  0  0  0  0  0
  -50.1201    0.5811  -15.5112 H   0  0  0  0  0  0  0  0  0  0  0  0
  -49.2997    2.1141  -15.6842 H   0  0  0  0  0  0  0  0  0  0  0  0
  1 13  1  0  0  0  0
  1 21  1  0  0  0  0
  2  1  1  0  0  0  0
  2  4  1  0  0  0  0
  2  3  2  0  0  0  0
  4  5  2  0  0  0  0
  5  7  1  0  0  0  0
  5 22  1  0  0  0  0
  6  4  1  0  0  0  0
  6  9  1  0  0  0  0
  7 10  1  0  0  0  0
  7 11  2  0  0  0  0
  8  6  2  0  0  0  0
  8 12  1  0  0  0  0
  9 23  1  0  0  0  0
 11  8  1  0  0  0  0
 11 24  1  0  0  0  0
 13 14  2  0  0  0  0
 14 16  1  0  0  0  0
 14 25  1  0  0  0  0
 15 13  1  0  0  0  0
 15 18  1  0  0  0  0
 16 19  2  0  0  0  0
 16 26  1  0  0  0  0
 17 15  2  0  0  0  0
 17 27  1  0  0  0  0
 18 28  1  0  0  0  0
 19 17  1  0  0  0  0
 19 20  1  0  0  0  0
 20 29  1  0  0  0  0
 20 30  1  0  0  0  0
 20 31  1  0  0  0  0
M  END
>  <minimizedAffinity>
-8.30801

$$$$

 OpenBabel07052409263D

 27 28  0  0  0  0  0  0  0  0999 V2000
  -51.8016    0.0498  -23.8101 N   0  0  0  0  0  0  0  0  0  0  0  0
  -51.1140   -1.0297  -23.2991 C   0  0  0  0  0  0  0  0  0  0  0  0
  -51.4532   -2.1982  -23.4434 O   0  0  0  0  0  0  0  0  0  0  0  0
  -49.9062   -0.6423  -22.5231 C   0  0  0  0  0  0  0  0  0  0  0  0
  -48.7334   -1.1743  -22.9210 C   0  0  0  0  0  0  0  0  0  0  0  0
  -50.0130   -0.0107  -21.2159 C   0  0  0  0  0  0  0  0  0  0  0  0
  -47.6539   -1.3375  -21.9591 C   0  0  0  0  0  0  0  0  0  0  0  0
  -48.9924   -0.1098  -20.3367 C   0  0  0  0  0  0  0  0  0  0  0  0
  -51.1752    0.6946  -20.9829 O   0  0  0  0  0  0  0  0  0  0  0  0
  -46.1205   -2.2411  -22.5110 Br  0  0  0  0  0  0  0  0  0  0  0  0
  -47.7828   -0.8293  -20.7181 C   0  0  0  0  0  0  0  0  0  0  0  0
  -49.0365    0.6711  -18.6416 Br  0  0  0  0  0  0  0  0  0  0  0  0
  -51.4933    0.5457  -25.0547 C   0  0  0  0  0  0  0  0  0  0  0  0
  -51.9035   -0.0724  -26.1790 C   0  0  0  0  0  0  0  0  0  0  0  0
  -50.8116    1.8289  -25.1556 C   0  0  0  0  0  0  0  0  0  0  0  0
  -51.6366    0.5246  -27.4791 C   0  0  0  0  0  0  0  0  0  0  0  0
  -50.5692    2.3868  -26.3529 C   0  0  0  0  0  0  0  0  0  0  0  0
  -50.4322    2.4553  -24.0224 F   0  0  0  0  0  0  0  0  0  0  0  0
  -50.9946    1.7041  -27.5635 C   0  0  0  0  0  0  0  0  0  0  0  0
  -52.5181    0.4685  -23.2805 H   0  0  0  0  0  0  0  0  0  0  0  0
  -48.6018   -1.4643  -23.9026 H   0  0  0  0  0  0  0  0  0  0  0  0
  -51.8453    0.7227  -21.6372 H   0  0  0  0  0  0  0  0  0  0  0  0
  -47.0205   -0.9500  -20.0330 H   0  0  0  0  0  0  0  0  0  0  0  0
  -52.4078   -0.9707  -26.1184 H   0  0  0  0  0  0  0  0  0  0  0  0
  -51.9407    0.0418  -28.3390 H   0  0  0  0  0  0  0  0  0  0  0  0
  -50.0835    3.2954  -26.4131 H   0  0  0  0  0  0  0  0  0  0  0  0
  -50.8044    2.1237  -28.4870 H   0  0  0  0  0  0  0  0  0  0  0  0
  1 13  1  0  0  0  0
  1 20  1  0  0  0  0
  2  1  1  0  0  0  0
  2  4  1  0  0  0  0
  2  3  2  0  0  0  0
  4  5  2  0  0  0  0
  5  7  1  0  0  0  0
  5 21  1  0  0  0  0
  6  4  1  0  0  0  0
  6  9  1  0  0  0  0
  7 10  1  0  0  0  0
  7 11  2  0  0  0  0
  8  6  2  0  0  0  0
  8 12  1  0  0  0  0
  9 22  1  0  0  0  0
 11  8  1  0  0  0  0
 11 23  1  0  0  0  0
 13 14  2  0  0  0  0
 14 16  1  0  0  0  0
 14 24  1  0  0  0  0
 15 13  1  0  0  0  0
 15 18  1  0  0  0  0
 16 19  2  0  0  0  0
 16 25  1  0  0  0  0
 17 15  2  0  0  0  0
 17 26  1  0  0  0  0
 19 17  1  0  0  0  0
 19 27  1  0  0  0  0
M  END
>  <minimizedAffinity>
-6.92100

$$$$

 OpenBabel07052409263D

 27 28  0  0  0  0  0  0  0  0999 V2000
  -51.8261    0.1833  -23.2358 N   0  0  0  0  0  0  0  0  0  0  0  0
  -51.0540   -0.9345  -23.0101 C   0  0  0  0  0  0  0  0  0  0  0  0
  -51.3688   -2.0672  -23.3545 O   0  0  0  0  0  0  0  0  0  0  0  0
  -49.8010   -0.6348  -22.2767 C   0  0  0  0  0  0  0  0  0  0  0  0
  -48.6706   -1.1774  -22.7722 C   0  0  0  0  0  0  0  0  0  0  0  0
  -49.8263   -0.1083  -20.9199 C   0  0  0  0  0  0  0  0  0  0  0  0
  -47.5266   -1.3888  -21.8980 C   0  0  0  0  0  0  0  0  0  0  0  0
  -48.7534   -0.2710  -20.1156 C   0  0  0  0  0  0  0  0  0  0  0  0
  -50.9750    0.5593  -20.5539 O   0  0  0  0  0  0  0  0  0  0  0  0
  -46.0346   -2.2535  -22.6047 Br  0  0  0  0  0  0  0  0  0  0  0  0
  -47.5704   -0.9561  -20.6231 C   0  0  0  0  0  0  0  0  0  0  0  0
  -48.6940    0.3720  -18.3635 Br  0  0  0  0  0  0  0  0  0  0  0  0
  -51.7612    0.8375  -24.4416 C   0  0  0  0  0  0  0  0  0  0  0  0
  -52.4312    0.3705  -25.5131 C   0  0  0  0  0  0  0  0  0  0  0  0
  -50.7507    1.8756  -24.6142 C   0  0  0  0  0  0  0  0  0  0  0  0
  -52.0726    0.8214  -26.8491 C   0  0  0  0  0  0  0  0  0  0  0  0
  -50.4365    2.3091  -25.8492 C   0  0  0  0  0  0  0  0  0  0  0  0
  -51.1139    1.7490  -26.9992 C   0  0  0  0  0  0  0  0  0  0  0  0
  -50.7666    2.1885  -28.2240 F   0  0  0  0  0  0  0  0  0  0  0  0
  -52.4270    0.5148  -22.5299 H   0  0  0  0  0  0  0  0  0  0  0  0
  -48.6168   -1.4420  -23.7683 H   0  0  0  0  0  0  0  0  0  0  0  0
  -51.6850    0.6372  -21.1603 H   0  0  0  0  0  0  0  0  0  0  0  0
  -46.7613   -1.1105  -20.0014 H   0  0  0  0  0  0  0  0  0  0  0  0
  -53.1990   -0.3073  -25.3862 H   0  0  0  0  0  0  0  0  0  0  0  0
  -50.2771    2.2773  -23.7900 H   0  0  0  0  0  0  0  0  0  0  0  0
  -52.5518    0.4309  -27.6755 H   0  0  0  0  0  0  0  0  0  0  0  0
  -49.7162    3.0372  -25.9755 H   0  0  0  0  0  0  0  0  0  0  0  0
  1 13  1  0  0  0  0
  1 20  1  0  0  0  0
  2  1  1  0  0  0  0
  2  4  1  0  0  0  0
  2  3  2  0  0  0  0
  4  5  2  0  0  0  0
  5  7  1  0  0  0  0
  5 21  1  0  0  0  0
  6  4  1  0  0  0  0
  6  9  1  0  0  0  0
  7 10  1  0  0  0  0
  7 11  2  0  0  0  0
  8  6  2  0  0  0  0
  8 12  1  0  0  0  0
  9 22  1  0  0  0  0
 11  8  1  0  0  0  0
 11 23  1  0  0  0  0
 13 14  2  0  0  0  0
 14 16  1  0  0  0  0
 14 24  1  0  0  0  0
 15 13  1  0  0  0  0
 15 25  1  0  0  0  0
 16 18  2  0  0  0  0
 16 26  1  0  0  0  0
 17 15  2  0  0  0  0
 17 27  1  0  0  0  0
 18 17  1  0  0  0  0
 18 19  1  0  0  0  0
M  END
>  <minimizedAffinity>
-7.04383

$$$$

 OpenBabel07052409263D

 27 28  0  0  0  0  0  0  0  0999 V2000
  -49.6943   -0.3398  -24.5590 N   0  0  0  0  0  0  0  0  0  0  0  0
  -50.2532   -0.8174  -23.3949 C   0  0  0  0  0  0  0  0  0  0  0  0
  -50.9244   -1.8401  -23.3272 O   0  0  0  0  0  0  0  0  0  0  0  0
  -49.9324    0.0157  -22.2111 C   0  0  0  0  0  0  0  0  0  0  0  0
  -50.8854    0.8830  -21.8133 C   0  0  0  0  0  0  0  0  0  0  0  0
  -48.8495   -0.3418  -21.3067 C   0  0  0  0  0  0  0  0  0  0  0  0
  -50.9451    1.3039  -20.4220 C   0  0  0  0  0  0  0  0  0  0  0  0
  -48.8750    0.0852  -20.0252 C   0  0  0  0  0  0  0  0  0  0  0  0
  -47.8328   -1.0953  -21.8516 O   0  0  0  0  0  0  0  0  0  0  0  0
  -52.3631    2.3931  -19.8969 Br  0  0  0  0  0  0  0  0  0  0  0  0
  -49.9803    0.9167  -19.5655 C   0  0  0  0  0  0  0  0  0  0  0  0
  -47.5324   -0.3267  -18.7937 Br  0  0  0  0  0  0  0  0  0  0  0  0
  -50.4244    0.4706  -25.3950 C   0  0  0  0  0  0  0  0  0  0  0  0
  -50.2960    1.8095  -25.3355 C   0  0  0  0  0  0  0  0  0  0  0  0
  -51.0933   -0.1366  -26.5380 C   0  0  0  0  0  0  0  0  0  0  0  0
  -50.6555    2.6265  -26.4828 C   0  0  0  0  0  0  0  0  0  0  0  0
  -51.4748    0.6263  -27.5784 C   0  0  0  0  0  0  0  0  0  0  0  0
  -51.2261    2.0577  -27.5592 C   0  0  0  0  0  0  0  0  0  0  0  0
  -48.7686   -0.5796  -24.7933 H   0  0  0  0  0  0  0  0  0  0  0  0
  -51.5704    1.2471  -22.4939 H   0  0  0  0  0  0  0  0  0  0  0  0
  -47.8753   -1.3601  -22.7494 H   0  0  0  0  0  0  0  0  0  0  0  0
  -50.0240    1.2107  -18.5772 H   0  0  0  0  0  0  0  0  0  0  0  0
  -49.9422    2.2560  -24.4750 H   0  0  0  0  0  0  0  0  0  0  0  0
  -51.2746   -1.1525  -26.5496 H   0  0  0  0  0  0  0  0  0  0  0  0
  -50.4729    3.6422  -26.4711 H   0  0  0  0  0  0  0  0  0  0  0  0
  -51.9440    0.1949  -28.3900 H   0  0  0  0  0  0  0  0  0  0  0  0
  -51.4874    2.6378  -28.3717 H   0  0  0  0  0  0  0  0  0  0  0  0
  1 13  1  0  0  0  0
  1 19  1  0  0  0  0
  2  1  1  0  0  0  0
  2  4  1  0  0  0  0
  2  3  2  0  0  0  0
  4  5  2  0  0  0  0
  5  7  1  0  0  0  0
  5 20  1  0  0  0  0
  6  4  1  0  0  0  0
  6  9  1  0  0  0  0
  7 10  1  0  0  0  0
  7 11  2  0  0  0  0
  8  6  2  0  0  0  0
  8 12  1  0  0  0  0
  9 21  1  0  0  0  0
 11  8  1  0  0  0  0
 11 22  1  0  0  0  0
 13 14  2  0  0  0  0
 14 16  1  0  0  0  0
 14 23  1  0  0  0  0
 15 13  1  0  0  0  0
 15 24  1  0  0  0  0
 16 18  2  0  0  0  0
 16 25  1  0  0  0  0
 17 15  2  0  0  0  0
 17 26  1  0  0  0  0
 18 17  1  0  0  0  0
 18 27  1  0  0  0  0
M  END
>  <minimizedAffinity>
-7.18711

$$$$

 OpenBabel07052409263D

 27 28  0  0  0  0  0  0  0  0999 V2000
  -49.5589   -0.2440  -24.5744 N   0  0  0  0  0  0  0  0  0  0  0  0
  -50.2012   -0.7208  -23.4515 C   0  0  0  0  0  0  0  0  0  0  0  0
  -50.9192   -1.7122  -23.4318 O   0  0  0  0  0  0  0  0  0  0  0  0
  -49.9116    0.0821  -22.2384 C   0  0  0  0  0  0  0  0  0  0  0  0
  -50.8807    0.9297  -21.8372 C   0  0  0  0  0  0  0  0  0  0  0  0
  -48.8426   -0.2909  -21.3231 C   0  0  0  0  0  0  0  0  0  0  0  0
  -50.9482    1.3457  -20.4446 C   0  0  0  0  0  0  0  0  0  0  0  0
  -48.8837    0.1203  -20.0370 C   0  0  0  0  0  0  0  0  0  0  0  0
  -47.8226   -1.0434  -21.8638 O   0  0  0  0  0  0  0  0  0  0  0  0
  -52.3748    2.4254  -19.9234 Br  0  0  0  0  0  0  0  0  0  0  0  0
  -49.9913    0.9519  -19.5822 C   0  0  0  0  0  0  0  0  0  0  0  0
  -47.5565   -0.3043  -18.7944 Br  0  0  0  0  0  0  0  0  0  0  0  0
  -50.2724    0.4580  -25.5203 C   0  0  0  0  0  0  0  0  0  0  0  0
  -50.9777   -0.1695  -26.4825 C   0  0  0  0  0  0  0  0  0  0  0  0
  -50.2458    1.9162  -25.4923 C   0  0  0  0  0  0  0  0  0  0  0  0
  -51.4989    0.5949  -27.6071 C   0  0  0  0  0  0  0  0  0  0  0  0
  -50.7777    2.6306  -26.4969 C   0  0  0  0  0  0  0  0  0  0  0  0
  -49.6999    2.5363  -24.4265 F   0  0  0  0  0  0  0  0  0  0  0  0
  -51.3981    1.9347  -27.6031 C   0  0  0  0  0  0  0  0  0  0  0  0
  -51.8887    2.6642  -28.6236 F   0  0  0  0  0  0  0  0  0  0  0  0
  -48.5956   -0.4045  -24.6993 H   0  0  0  0  0  0  0  0  0  0  0  0
  -51.5729    1.2825  -22.5164 H   0  0  0  0  0  0  0  0  0  0  0  0
  -47.8544   -1.2966  -22.7654 H   0  0  0  0  0  0  0  0  0  0  0  0
  -50.0426    1.2409  -18.5928 H   0  0  0  0  0  0  0  0  0  0  0  0
  -51.1473   -1.1857  -26.4225 H   0  0  0  0  0  0  0  0  0  0  0  0
  -51.9431    0.1103  -28.4026 H   0  0  0  0  0  0  0  0  0  0  0  0
  -50.7444    3.6619  -26.4802 H   0  0  0  0  0  0  0  0  0  0  0  0
  1 13  1  0  0  0  0
  1 21  1  0  0  0  0
  2  1  1  0  0  0  0
  2  4  1  0  0  0  0
  2  3  2  0  0  0  0
  4  5  2  0  0  0  0
  5  7  1  0  0  0  0
  5 22  1  0  0  0  0
  6  4  1  0  0  0  0
  6  9  1  0  0  0  0
  7 10  1  0  0  0  0
  7 11  2  0  0  0  0
  8  6  2  0  0  0  0
  8 12  1  0  0  0  0
  9 23  1  0  0  0  0
 11  8  1  0  0  0  0
 11 24  1  0  0  0  0
 13 14  2  0  0  0  0
 14 16  1  0  0  0  0
 14 25  1  0  0  0  0
 15 13  1  0  0  0  0
 15 18  1  0  0  0  0
 16 19  2  0  0  0  0
 16 26  1  0  0  0  0
 17 15  2  0  0  0  0
 17 27  1  0  0  0  0
 19 17  1  0  0  0  0
 19 20  1  0  0  0  0
M  END
>  <minimizedAffinity>
-7.83603

$$$$

 OpenBabel07052409263D

 31 32  0  0  0  0  0  0  0  0999 V2000
  -50.9414    1.5006  -20.9610 N   0  0  0  0  0  0  0  0  0  0  0  0
  -51.6616    1.7727  -19.8212 C   0  0  0  0  0  0  0  0  0  0  0  0
  -52.4660    2.6939  -19.7155 O   0  0  0  0  0  0  0  0  0  0  0  0
  -51.2817    0.9728  -18.6311 C   0  0  0  0  0  0  0  0  0  0  0  0
  -50.9369   -0.3198  -18.7873 C   0  0  0  0  0  0  0  0  0  0  0  0
  -50.9778    1.6448  -17.3714 C   0  0  0  0  0  0  0  0  0  0  0  0
  -49.8534   -0.8565  -17.9761 C   0  0  0  0  0  0  0  0  0  0  0  0
  -50.0674    1.1004  -16.5345 C   0  0  0  0  0  0  0  0  0  0  0  0
  -51.6729    2.8026  -17.0843 O   0  0  0  0  0  0  0  0  0  0  0  0
  -49.1204   -2.4950  -18.4708 Br  0  0  0  0  0  0  0  0  0  0  0  0
  -49.4382   -0.1700  -16.8926 C   0  0  0  0  0  0  0  0  0  0  0  0
  -49.5816    1.8629  -14.9011 Br  0  0  0  0  0  0  0  0  0  0  0  0
  -52.0096   -0.4010  -24.4773 C   0  0  0  0  0  0  0  0  0  0  0  0
  -51.1485   -0.9949  -23.6309 C   0  0  0  0  0  0  0  0  0  0  0  0
  -52.6768    0.8310  -24.0855 C   0  0  0  0  0  0  0  0  0  0  0  0
  -50.9421   -0.4461  -22.3004 C   0  0  0  0  0  0  0  0  0  0  0  0
  -52.4339    1.3742  -22.8782 C   0  0  0  0  0  0  0  0  0  0  0  0
  -51.4919    0.7367  -21.9655 C   0  0  0  0  0  0  0  0  0  0  0  0
  -52.0178   -0.6752  -25.8262 O   0  0  0  0  0  0  0  0  0  0  0  0
  -52.1736    0.5328  -26.5716 C   0  0  0  0  0  0  0  0  0  0  0  0
  -50.0277    1.8538  -21.0590 H   0  0  0  0  0  0  0  0  0  0  0  0
  -51.4307   -0.9178  -19.4682 H   0  0  0  0  0  0  0  0  0  0  0  0
  -52.2947    3.1403  -17.6985 H   0  0  0  0  0  0  0  0  0  0  0  0
  -48.6711   -0.5436  -16.3121 H   0  0  0  0  0  0  0  0  0  0  0  0
  -50.6347   -1.8398  -23.9261 H   0  0  0  0  0  0  0  0  0  0  0  0
  -53.3367    1.2887  -24.7336 H   0  0  0  0  0  0  0  0  0  0  0  0
  -50.3736   -0.9636  -21.6119 H   0  0  0  0  0  0  0  0  0  0  0  0
  -52.9150    2.2431  -22.5980 H   0  0  0  0  0  0  0  0  0  0  0  0
  -52.1786    0.3082  -27.6178 H   0  0  0  0  0  0  0  0  0  0  0  0
  -51.3615    1.1942  -26.3527 H   0  0  0  0  0  0  0  0  0  0  0  0
  -53.0974    1.0011  -26.3029 H   0  0  0  0  0  0  0  0  0  0  0  0
  1 18  1  0  0  0  0
  1 21  1  0  0  0  0
  2  1  1  0  0  0  0
  2  4  1  0  0  0  0
  2  3  2  0  0  0  0
  4  5  2  0  0  0  0
  5  7  1  0  0  0  0
  5 22  1  0  0  0  0
  6  4  1  0  0  0  0
  6  9  1  0  0  0  0
  7 10  1  0  0  0  0
  7 11  2  0  0  0  0
  8  6  2  0  0  0  0
  8 12  1  0  0  0  0
  9 23  1  0  0  0  0
 11  8  1  0  0  0  0
 11 24  1  0  0  0  0
 13 15  1  0  0  0  0
 14 13  2  0  0  0  0
 14 25  1  0  0  0  0
 15 17  2  0  0  0  0
 15 26  1  0  0  0  0
 16 14  1  0  0  0  0
 16 27  1  0  0  0  0
 17 18  1  0  0  0  0
 17 28  1  0  0  0  0
 18 16  2  0  0  0  0
 19 13  1  0  0  0  0
 19 20  1  0  0  0  0
 20 29  1  0  0  0  0
 20 30  1  0  0  0  0
 20 31  1  0  0  0  0
M  END
>  <minimizedAffinity>
-7.58863

$$$$

 OpenBabel07052409263D

 29 30  0  0  0  0  0  0  0  0999 V2000
  -45.3630   -4.7964  -31.7859 C   0  0  0  0  0  0  0  0  0  0  0  0
  -46.1301   -4.0088  -30.9690 N   0  0  0  0  0  0  0  0  0  0  0  0
  -45.8233   -5.5491  -32.6352 O   0  0  0  0  0  0  0  0  0  0  0  0
  -46.6843   -4.5907  -29.8618 C   0  0  0  0  0  0  0  0  0  0  0  0
  -47.8918   -4.7669  -29.7446 O   0  0  0  0  0  0  0  0  0  0  0  0
  -45.7353   -4.8434  -28.7466 C   0  0  0  0  0  0  0  0  0  0  0  0
  -45.0226   -3.7788  -28.3252 C   0  0  0  0  0  0  0  0  0  0  0  0
  -45.9479   -5.9657  -27.8432 C   0  0  0  0  0  0  0  0  0  0  0  0
  -44.7618   -3.6054  -26.9039 C   0  0  0  0  0  0  0  0  0  0  0  0
  -45.6413   -5.8448  -26.5336 C   0  0  0  0  0  0  0  0  0  0  0  0
  -46.4391   -7.1111  -28.4255 O   0  0  0  0  0  0  0  0  0  0  0  0
  -43.9843   -2.0063  -26.3486 Br  0  0  0  0  0  0  0  0  0  0  0  0
  -45.0638   -4.5983  -26.0449 C   0  0  0  0  0  0  0  0  0  0  0  0
  -45.8780   -7.2296  -25.3052 Br  0  0  0  0  0  0  0  0  0  0  0  0
  -43.8996   -4.5774  -31.6408 C   0  0  0  0  0  0  0  0  0  0  0  0
  -43.4763   -3.3042  -31.7751 C   0  0  0  0  0  0  0  0  0  0  0  0
  -42.9304   -5.6664  -31.7481 C   0  0  0  0  0  0  0  0  0  0  0  0
  -42.2278   -3.0429  -32.4708 C   0  0  0  0  0  0  0  0  0  0  0  0
  -41.7233   -5.4086  -32.2930 C   0  0  0  0  0  0  0  0  0  0  0  0
  -43.3644   -7.3516  -31.0762 Br  0  0  0  0  0  0  0  0  0  0  0  0
  -41.3867   -4.0605  -32.7279 C   0  0  0  0  0  0  0  0  0  0  0  0
  -46.2776   -3.0567  -31.1716 H   0  0  0  0  0  0  0  0  0  0  0  0
  -44.6644   -3.0913  -29.0064 H   0  0  0  0  0  0  0  0  0  0  0  0
  -46.6309   -7.1253  -29.3426 H   0  0  0  0  0  0  0  0  0  0  0  0
  -44.8855   -4.4760  -25.0358 H   0  0  0  0  0  0  0  0  0  0  0  0
  -44.0321   -2.5252  -31.3886 H   0  0  0  0  0  0  0  0  0  0  0  0
  -41.9881   -2.0834  -32.7656 H   0  0  0  0  0  0  0  0  0  0  0  0
  -41.0356   -6.1703  -32.4020 H   0  0  0  0  0  0  0  0  0  0  0  0
  -40.5038   -3.8859  -33.2329 H   0  0  0  0  0  0  0  0  0  0  0  0
  1 15  1  0  0  0  0
  1  2  1  0  0  0  0
  1  3  2  0  0  0  0
  2 22  1  0  0  0  0
  4  2  1  0  0  0  0
  4  6  1  0  0  0  0
  4  5  2  0  0  0  0
  6  7  2  0  0  0  0
  7  9  1  0  0  0  0
  7 23  1  0  0  0  0
  8  6  1  0  0  0  0
  8 11  1  0  0  0  0
  9 12  1  0  0  0  0
  9 13  2  0  0  0  0
 10  8  2  0  0  0  0
 10 14  1  0  0  0  0
 11 24  1  0  0  0  0
 13 10  1  0  0  0  0
 13 25  1  0  0  0  0
 15 16  2  0  0  0  0
 16 18  1  0  0  0  0
 16 26  1  0  0  0  0
 17 15  1  0  0  0  0
 17 20  1  0  0  0  0
 18 21  2  0  0  0  0
 18 27  1  0  0  0  0
 19 17  2  0  0  0  0
 19 28  1  0  0  0  0
 21 19  1  0  0  0  0
 21 29  1  0  0  0  0
M  END
>  <minimizedAffinity>
-6.96103

$$$$

 OpenBabel07052409263D

 32 33  0  0  0  0  0  0  0  0999 V2000
  -51.7785    1.3073  -21.9596 C   0  0  0  0  0  0  0  0  0  0  0  0
  -50.5105    1.0543  -21.5060 N   0  0  0  0  0  0  0  0  0  0  0  0
  -52.7657    1.4088  -21.2411 O   0  0  0  0  0  0  0  0  0  0  0  0
  -50.3384   -0.1939  -20.9902 C   0  0  0  0  0  0  0  0  0  0  0  0
  -50.2308   -1.2098  -21.6722 O   0  0  0  0  0  0  0  0  0  0  0  0
  -50.1061   -0.2500  -19.5242 C   0  0  0  0  0  0  0  0  0  0  0  0
  -50.7753    0.5876  -18.7083 C   0  0  0  0  0  0  0  0  0  0  0  0
  -48.9759   -1.0124  -18.9977 C   0  0  0  0  0  0  0  0  0  0  0  0
  -50.1286    1.0591  -17.4933 C   0  0  0  0  0  0  0  0  0  0  0  0
  -48.4238   -0.6531  -17.8185 C   0  0  0  0  0  0  0  0  0  0  0  0
  -48.5432   -2.1004  -19.7305 O   0  0  0  0  0  0  0  0  0  0  0  0
  -50.9319    2.4563  -16.5606 Br  0  0  0  0  0  0  0  0  0  0  0  0
  -48.9966    0.4633  -17.0709 C   0  0  0  0  0  0  0  0  0  0  0  0
  -46.9708   -1.5365  -17.0462 Br  0  0  0  0  0  0  0  0  0  0  0  0
  -51.8636    1.4947  -23.4320 C   0  0  0  0  0  0  0  0  0  0  0  0
  -50.7690    1.9787  -24.0489 C   0  0  0  0  0  0  0  0  0  0  0  0
  -52.8919    0.8229  -24.2113 C   0  0  0  0  0  0  0  0  0  0  0  0
  -50.4593    1.5381  -25.3997 C   0  0  0  0  0  0  0  0  0  0  0  0
  -52.6423    0.4835  -25.4888 C   0  0  0  0  0  0  0  0  0  0  0  0
  -51.3575    0.8165  -26.1018 C   0  0  0  0  0  0  0  0  0  0  0  0
  -51.1215    0.3459  -27.5039 C   0  0  0  0  0  0  0  0  0  0  0  0
  -49.7854    1.7188  -21.5494 H   0  0  0  0  0  0  0  0  0  0  0  0
  -51.7337    0.8907  -18.9420 H   0  0  0  0  0  0  0  0  0  0  0  0
  -48.9570   -2.3117  -20.5442 H   0  0  0  0  0  0  0  0  0  0  0  0
  -48.5308    0.7981  -16.2130 H   0  0  0  0  0  0  0  0  0  0  0  0
  -50.1560    2.6555  -23.5680 H   0  0  0  0  0  0  0  0  0  0  0  0
  -53.8076    0.6079  -23.7866 H   0  0  0  0  0  0  0  0  0  0  0  0
  -49.5492    1.7782  -25.8228 H   0  0  0  0  0  0  0  0  0  0  0  0
  -53.3605   -0.0138  -26.0383 H   0  0  0  0  0  0  0  0  0  0  0  0
  -50.1494    0.6565  -27.8255 H   0  0  0  0  0  0  0  0  0  0  0  0
  -51.8626    0.7668  -28.1509 H   0  0  0  0  0  0  0  0  0  0  0  0
  -51.1839   -0.7218  -27.5370 H   0  0  0  0  0  0  0  0  0  0  0  0
  1 15  1  0  0  0  0
  1  2  1  0  0  0  0
  1  3  2  0  0  0  0
  2 22  1  0  0  0  0
  4  2  1  0  0  0  0
  4  6  1  0  0  0  0
  4  5  2  0  0  0  0
  6  7  2  0  0  0  0
  7  9  1  0  0  0  0
  7 23  1  0  0  0  0
  8  6  1  0  0  0  0
  8 11  1  0  0  0  0
  9 12  1  0  0  0  0
  9 13  2  0  0  0  0
 10  8  2  0  0  0  0
 10 14  1  0  0  0  0
 11 24  1  0  0  0  0
 13 10  1  0  0  0  0
 13 25  1  0  0  0  0
 15 16  2  0  0  0  0
 16 18  1  0  0  0  0
 16 26  1  0  0  0  0
 17 15  1  0  0  0  0
 17 27  1  0  0  0  0
 18 20  2  0  0  0  0
 18 28  1  0  0  0  0
 19 17  2  0  0  0  0
 19 29  1  0  0  0  0
 20 19  1  0  0  0  0
 20 21  1  0  0  0  0
 21 30  1  0  0  0  0
 21 31  1  0  0  0  0
 21 32  1  0  0  0  0
M  END
>  <minimizedAffinity>
-7.69853

$$$$

 OpenBabel07052409263D

 29 30  0  0  0  0  0  0  0  0999 V2000
  -51.1741    1.0309  -19.9772 C   0  0  0  0  0  0  0  0  0  0  0  0
  -51.0801    1.7213  -21.1598 N   0  0  0  0  0  0  0  0  0  0  0  0
  -52.1662    0.4434  -19.5697 O   0  0  0  0  0  0  0  0  0  0  0  0
  -51.8444    1.2919  -22.2071 C   0  0  0  0  0  0  0  0  0  0  0  0
  -52.7928    1.9360  -22.6463 O   0  0  0  0  0  0  0  0  0  0  0  0
  -51.3373    0.1111  -22.9476 C   0  0  0  0  0  0  0  0  0  0  0  0
  -50.2844   -0.5730  -22.4611 C   0  0  0  0  0  0  0  0  0  0  0  0
  -51.8163   -0.1723  -24.2957 C   0  0  0  0  0  0  0  0  0  0  0  0
  -49.3626   -1.1990  -23.3966 C   0  0  0  0  0  0  0  0  0  0  0  0
  -51.0191   -0.8474  -25.1519 C   0  0  0  0  0  0  0  0  0  0  0  0
  -53.0951    0.2356  -24.6164 O   0  0  0  0  0  0  0  0  0  0  0  0
  -47.7354   -1.8183  -22.7373 Br  0  0  0  0  0  0  0  0  0  0  0  0
  -49.7163   -1.3234  -24.6907 C   0  0  0  0  0  0  0  0  0  0  0  0
  -51.5042   -1.2635  -26.9063 Br  0  0  0  0  0  0  0  0  0  0  0  0
  -49.9070    1.0833  -19.2074 C   0  0  0  0  0  0  0  0  0  0  0  0
  -48.8281    0.5074  -19.7763 C   0  0  0  0  0  0  0  0  0  0  0  0
  -49.9121    1.3407  -17.7726 C   0  0  0  0  0  0  0  0  0  0  0  0
  -47.8201   -0.1167  -18.9344 C   0  0  0  0  0  0  0  0  0  0  0  0
  -48.9344    0.8307  -16.9997 C   0  0  0  0  0  0  0  0  0  0  0  0
  -51.1340    2.3481  -17.0907 Cl  0  0  0  0  0  0  0  0  0  0  0  0
  -47.8733    0.0366  -17.5993 C   0  0  0  0  0  0  0  0  0  0  0  0
  -50.4828    2.4987  -21.2499 H   0  0  0  0  0  0  0  0  0  0  0  0
  -50.1341   -0.6518  -21.4432 H   0  0  0  0  0  0  0  0  0  0  0  0
  -53.6097    0.7018  -23.9873 H   0  0  0  0  0  0  0  0  0  0  0  0
  -49.0628   -1.7578  -25.3610 H   0  0  0  0  0  0  0  0  0  0  0  0
  -48.7187    0.5097  -20.8025 H   0  0  0  0  0  0  0  0  0  0  0  0
  -47.0651   -0.6764  -19.3607 H   0  0  0  0  0  0  0  0  0  0  0  0
  -48.9379    1.0032  -15.9822 H   0  0  0  0  0  0  0  0  0  0  0  0
  -47.1611   -0.4093  -17.0001 H   0  0  0  0  0  0  0  0  0  0  0  0
  1 15  1  0  0  0  0
  1  2  1  0  0  0  0
  1  3  2  0  0  0  0
  2 22  1  0  0  0  0
  4  2  1  0  0  0  0
  4  6  1  0  0  0  0
  4  5  2  0  0  0  0
  6  7  2  0  0  0  0
  7  9  1  0  0  0  0
  7 23  1  0  0  0  0
  8  6  1  0  0  0  0
  8 11  1  0  0  0  0
  9 12  1  0  0  0  0
  9 13  2  0  0  0  0
 10  8  2  0  0  0  0
 10 14  1  0  0  0  0
 11 24  1  0  0  0  0
 13 10  1  0  0  0  0
 13 25  1  0  0  0  0
 15 16  2  0  0  0  0
 16 18  1  0  0  0  0
 16 26  1  0  0  0  0
 17 15  1  0  0  0  0
 17 20  1  0  0  0  0
 18 21  2  0  0  0  0
 18 27  1  0  0  0  0
 19 17  2  0  0  0  0
 19 28  1  0  0  0  0
 21 19  1  0  0  0  0
 21 29  1  0  0  0  0
M  END
>  <minimizedAffinity>
-8.22488

$$$$

 OpenBabel07052409263D

 29 30  0  0  0  0  0  0  0  0999 V2000
  -49.3601   -1.0986  -24.5990 C   0  0  0  0  0  0  0  0  0  0  0  0
  -49.9712   -2.0024  -23.7728 N   0  0  0  0  0  0  0  0  0  0  0  0
  -48.1843   -1.1708  -24.9379 O   0  0  0  0  0  0  0  0  0  0  0  0
  -49.9379   -1.7095  -22.4409 C   0  0  0  0  0  0  0  0  0  0  0  0
  -50.8038   -1.0489  -21.8800 O   0  0  0  0  0  0  0  0  0  0  0  0
  -48.7917   -2.3177  -21.7248 C   0  0  0  0  0  0  0  0  0  0  0  0
  -48.2498   -1.5760  -20.7380 C   0  0  0  0  0  0  0  0  0  0  0  0
  -48.6127   -3.7620  -21.7179 C   0  0  0  0  0  0  0  0  0  0  0  0
  -47.8156   -2.2258  -19.5104 C   0  0  0  0  0  0  0  0  0  0  0  0
  -48.1233   -4.3729  -20.6169 C   0  0  0  0  0  0  0  0  0  0  0  0
  -48.9513   -4.4105  -22.8851 O   0  0  0  0  0  0  0  0  0  0  0  0
  -47.3275   -1.1437  -18.0751 Br  0  0  0  0  0  0  0  0  0  0  0  0
  -47.7544   -3.5706  -19.4557 C   0  0  0  0  0  0  0  0  0  0  0  0
  -47.8655   -6.2186  -20.5119 Br  0  0  0  0  0  0  0  0  0  0  0  0
  -50.2483   -0.0317  -25.1267 C   0  0  0  0  0  0  0  0  0  0  0  0
  -50.1391    1.1873  -24.5602 C   0  0  0  0  0  0  0  0  0  0  0  0
  -50.9659   -0.1777  -26.3861 C   0  0  0  0  0  0  0  0  0  0  0  0
  -50.3610    2.3683  -25.3816 C   0  0  0  0  0  0  0  0  0  0  0  0
  -51.2632    0.9188  -27.1096 C   0  0  0  0  0  0  0  0  0  0  0  0
  -51.4727   -1.7393  -26.9087 Cl  0  0  0  0  0  0  0  0  0  0  0  0
  -50.8992    2.2350  -26.6085 C   0  0  0  0  0  0  0  0  0  0  0  0
  -51.2047    3.6063  -27.6009 Cl  0  0  0  0  0  0  0  0  0  0  0  0
  -50.4080   -2.8141  -24.1185 H   0  0  0  0  0  0  0  0  0  0  0  0
  -48.1438   -0.5558  -20.8522 H   0  0  0  0  0  0  0  0  0  0  0  0
  -49.2861   -3.9229  -23.6118 H   0  0  0  0  0  0  0  0  0  0  0  0
  -47.4450   -4.0355  -18.5879 H   0  0  0  0  0  0  0  0  0  0  0  0
  -49.9020    1.2813  -23.5602 H   0  0  0  0  0  0  0  0  0  0  0  0
  -50.1071    3.3030  -25.0254 H   0  0  0  0  0  0  0  0  0  0  0  0
  -51.7475    0.8255  -28.0161 H   0  0  0  0  0  0  0  0  0  0  0  0
  1 15  1  0  0  0  0
  1  2  1  0  0  0  0
  1  3  2  0  0  0  0
  2 23  1  0  0  0  0
  4  2  1  0  0  0  0
  4  6  1  0  0  0  0
  4  5  2  0  0  0  0
  6  7  2  0  0  0  0
  7  9  1  0  0  0  0
  7 24  1  0  0  0  0
  8  6  1  0  0  0  0
  8 11  1  0  0  0  0
  9 12  1  0  0  0  0
  9 13  2  0  0  0  0
 10  8  2  0  0  0  0
 10 14  1  0  0  0  0
 11 25  1  0  0  0  0
 13 10  1  0  0  0  0
 13 26  1  0  0  0  0
 15 16  2  0  0  0  0
 16 18  1  0  0  0  0
 16 27  1  0  0  0  0
 17 15  1  0  0  0  0
 17 20  1  0  0  0  0
 18 21  2  0  0  0  0
 18 28  1  0  0  0  0
 19 17  2  0  0  0  0
 19 29  1  0  0  0  0
 21 19  1  0  0  0  0
 21 22  1  0  0  0  0
M  END
>  <minimizedAffinity>
-7.48478

$$$$

 OpenBabel07052409263D

 29 30  0  0  0  0  0  0  0  0999 V2000
  -49.5822   -2.3945  -22.2413 C   0  0  0  0  0  0  0  0  0  0  0  0
  -49.7376   -1.7131  -21.0663 N   0  0  0  0  0  0  0  0  0  0  0  0
  -49.1748   -3.5488  -22.2849 O   0  0  0  0  0  0  0  0  0  0  0  0
  -48.9133   -0.6417  -20.8574 C   0  0  0  0  0  0  0  0  0  0  0  0
  -47.6897   -0.6624  -20.9047 O   0  0  0  0  0  0  0  0  0  0  0  0
  -49.6225    0.5805  -20.4079 C   0  0  0  0  0  0  0  0  0  0  0  0
  -50.5367    1.1301  -21.2296 C   0  0  0  0  0  0  0  0  0  0  0  0
  -49.6266    0.9377  -18.9946 C   0  0  0  0  0  0  0  0  0  0  0  0
  -51.7799    1.6257  -20.6591 C   0  0  0  0  0  0  0  0  0  0  0  0
  -50.7276    1.5109  -18.4615 C   0  0  0  0  0  0  0  0  0  0  0  0
  -48.4763    0.6899  -18.2752 O   0  0  0  0  0  0  0  0  0  0  0  0
  -53.1756    2.0229  -21.8246 Br  0  0  0  0  0  0  0  0  0  0  0  0
  -51.8692    1.8054  -19.3265 C   0  0  0  0  0  0  0  0  0  0  0  0
  -50.8720    1.9988  -16.6653 Br  0  0  0  0  0  0  0  0  0  0  0  0
  -50.0326   -1.6718  -23.4570 C   0  0  0  0  0  0  0  0  0  0  0  0
  -51.3557   -1.5348  -23.6720 C   0  0  0  0  0  0  0  0  0  0  0  0
  -49.0783   -0.9877  -24.3182 C   0  0  0  0  0  0  0  0  0  0  0  0
  -51.8263   -0.4934  -24.5742 C   0  0  0  0  0  0  0  0  0  0  0  0
  -49.5184   -0.0747  -25.2046 C   0  0  0  0  0  0  0  0  0  0  0  0
  -50.9420    0.2064  -25.3090 C   0  0  0  0  0  0  0  0  0  0  0  0
  -51.4581    1.4423  -26.3876 Cl  0  0  0  0  0  0  0  0  0  0  0  0
  -50.4119   -1.9813  -20.4010 H   0  0  0  0  0  0  0  0  0  0  0  0
  -50.3591    1.1984  -22.2439 H   0  0  0  0  0  0  0  0  0  0  0  0
  -47.7395    0.2895  -18.6931 H   0  0  0  0  0  0  0  0  0  0  0  0
  -52.7489    2.1531  -18.9138 H   0  0  0  0  0  0  0  0  0  0  0  0
  -52.0281   -2.1611  -23.2023 H   0  0  0  0  0  0  0  0  0  0  0  0
  -48.0710   -1.2013  -24.2496 H   0  0  0  0  0  0  0  0  0  0  0  0
  -52.8357   -0.2923  -24.6501 H   0  0  0  0  0  0  0  0  0  0  0  0
  -48.8472    0.4247  -25.8088 H   0  0  0  0  0  0  0  0  0  0  0  0
  1 15  1  0  0  0  0
  1  2  1  0  0  0  0
  1  3  2  0  0  0  0
  2 22  1  0  0  0  0
  4  2  1  0  0  0  0
  4  6  1  0  0  0  0
  4  5  2  0  0  0  0
  6  7  2  0  0  0  0
  7  9  1  0  0  0  0
  7 23  1  0  0  0  0
  8  6  1  0  0  0  0
  8 11  1  0  0  0  0
  9 12  1  0  0  0  0
  9 13  2  0  0  0  0
 10  8  2  0  0  0  0
 10 14  1  0  0  0  0
 11 24  1  0  0  0  0
 13 10  1  0  0  0  0
 13 25  1  0  0  0  0
 15 16  2  0  0  0  0
 16 18  1  0  0  0  0
 16 26  1  0  0  0  0
 17 15  1  0  0  0  0
 17 27  1  0  0  0  0
 18 20  2  0  0  0  0
 18 28  1  0  0  0  0
 19 17  2  0  0  0  0
 19 29  1  0  0  0  0
 20 19  1  0  0  0  0
 20 21  1  0  0  0  0
M  END
>  <minimizedAffinity>
-7.79581

$$$$

 OpenBabel07052409263D

 29 30  0  0  0  0  0  0  0  0999 V2000
  -44.9647   -2.3944  -29.8774 C   0  0  0  0  0  0  0  0  0  0  0  0
  -44.5128   -3.3016  -30.7983 N   0  0  0  0  0  0  0  0  0  0  0  0
  -45.5080   -1.3377  -30.1726 O   0  0  0  0  0  0  0  0  0  0  0  0
  -45.4079   -4.2255  -31.2652 C   0  0  0  0  0  0  0  0  0  0  0  0
  -45.8239   -4.2107  -32.4186 O   0  0  0  0  0  0  0  0  0  0  0  0
  -45.7106   -5.3391  -30.3270 C   0  0  0  0  0  0  0  0  0  0  0  0
  -44.7734   -6.3056  -30.2512 C   0  0  0  0  0  0  0  0  0  0  0  0
  -47.0931   -5.6634  -30.0027 C   0  0  0  0  0  0  0  0  0  0  0  0
  -45.1836   -7.7025  -30.2329 C   0  0  0  0  0  0  0  0  0  0  0  0
  -47.4746   -6.9548  -29.8939 C   0  0  0  0  0  0  0  0  0  0  0  0
  -47.9254   -4.5862  -29.8049 O   0  0  0  0  0  0  0  0  0  0  0  0
  -43.8612   -9.0026  -30.4106 Br  0  0  0  0  0  0  0  0  0  0  0  0
  -46.4838   -8.0114  -30.0636 C   0  0  0  0  0  0  0  0  0  0  0  0
  -49.2224   -7.4658  -29.4858 Br  0  0  0  0  0  0  0  0  0  0  0  0
  -44.6057   -2.7348  -28.4747 C   0  0  0  0  0  0  0  0  0  0  0  0
  -43.8096   -1.8815  -27.8027 C   0  0  0  0  0  0  0  0  0  0  0  0
  -45.2586   -3.8242  -27.7616 C   0  0  0  0  0  0  0  0  0  0  0  0
  -43.8496   -1.8590  -26.3482 C   0  0  0  0  0  0  0  0  0  0  0  0
  -45.2350   -3.8476  -26.4153 C   0  0  0  0  0  0  0  0  0  0  0  0
  -44.5373   -2.8025  -25.6755 C   0  0  0  0  0  0  0  0  0  0  0  0
  -44.6260   -2.8384  -23.8148 Br  0  0  0  0  0  0  0  0  0  0  0  0
  -43.5798   -3.2896  -31.1124 H   0  0  0  0  0  0  0  0  0  0  0  0
  -43.7728   -6.0570  -30.2065 H   0  0  0  0  0  0  0  0  0  0  0  0
  -47.5937   -3.7147  -29.8969 H   0  0  0  0  0  0  0  0  0  0  0  0
  -46.7800   -8.9999  -30.0539 H   0  0  0  0  0  0  0  0  0  0  0  0
  -43.1760   -1.2484  -28.3153 H   0  0  0  0  0  0  0  0  0  0  0  0
  -45.7367   -4.5741  -28.2852 H   0  0  0  0  0  0  0  0  0  0  0  0
  -43.3502   -1.1188  -25.8308 H   0  0  0  0  0  0  0  0  0  0  0  0
  -45.7122   -4.6075  -25.9056 H   0  0  0  0  0  0  0  0  0  0  0  0
  1 15  1  0  0  0  0
  1  2  1  0  0  0  0
  1  3  2  0  0  0  0
  2 22  1  0  0  0  0
  4  2  1  0  0  0  0
  4  6  1  0  0  0  0
  4  5  2  0  0  0  0
  6  7  2  0  0  0  0
  7  9  1  0  0  0  0
  7 23  1  0  0  0  0
  8  6  1  0  0  0  0
  8 11  1  0  0  0  0
  9 12  1  0  0  0  0
  9 13  2  0  0  0  0
 10  8  2  0  0  0  0
 10 14  1  0  0  0  0
 11 24  1  0  0  0  0
 13 10  1  0  0  0  0
 13 25  1  0  0  0  0
 15 16  2  0  0  0  0
 16 18  1  0  0  0  0
 16 26  1  0  0  0  0
 17 15  1  0  0  0  0
 17 27  1  0  0  0  0
 18 20  2  0  0  0  0
 18 28  1  0  0  0  0
 19 17  2  0  0  0  0
 19 29  1  0  0  0  0
 20 19  1  0  0  0  0
 20 21  1  0  0  0  0
M  END
>  <minimizedAffinity>
-7.36441

$$$$

 OpenBabel07052409263D

 30 31  0  0  0  0  0  0  0  0999 V2000
  -45.8765   -5.3916  -26.8574 C   0  0  0  0  0  0  0  0  0  0  0  0
  -46.8743   -5.2665  -27.7872 N   0  0  0  0  0  0  0  0  0  0  0  0
  -45.3550   -6.4458  -26.5157 O   0  0  0  0  0  0  0  0  0  0  0  0
  -46.7186   -5.9228  -28.9749 C   0  0  0  0  0  0  0  0  0  0  0  0
  -47.4631   -6.8267  -29.3387 O   0  0  0  0  0  0  0  0  0  0  0  0
  -45.6041   -5.4270  -29.8206 C   0  0  0  0  0  0  0  0  0  0  0  0
  -44.6804   -6.3304  -30.2055 C   0  0  0  0  0  0  0  0  0  0  0  0
  -45.5603   -4.0656  -30.3316 C   0  0  0  0  0  0  0  0  0  0  0  0
  -43.6460   -5.9492  -31.1546 C   0  0  0  0  0  0  0  0  0  0  0  0
  -44.5996   -3.7091  -31.2116 C   0  0  0  0  0  0  0  0  0  0  0  0
  -46.5268   -3.2091  -29.8541 O   0  0  0  0  0  0  0  0  0  0  0  0
  -42.4019   -7.2421  -31.6579 Br  0  0  0  0  0  0  0  0  0  0  0  0
  -43.6109   -4.6922  -31.6370 C   0  0  0  0  0  0  0  0  0  0  0  0
  -44.4584   -1.9840  -31.9124 Br  0  0  0  0  0  0  0  0  0  0  0  0
  -45.4671   -4.0837  -26.2932 C   0  0  0  0  0  0  0  0  0  0  0  0
  -44.2663   -3.5933  -26.6611 C   0  0  0  0  0  0  0  0  0  0  0  0
  -46.3249   -3.3228  -25.3945 C   0  0  0  0  0  0  0  0  0  0  0  0
  -43.8566   -2.2742  -26.2061 C   0  0  0  0  0  0  0  0  0  0  0  0
  -45.9344   -2.1092  -24.9604 C   0  0  0  0  0  0  0  0  0  0  0  0
  -47.5187   -3.9080  -25.0461 O   0  0  0  0  0  0  0  0  0  0  0  0
  -44.6549   -1.5649  -25.3881 C   0  0  0  0  0  0  0  0  0  0  0  0
  -47.6750   -4.7231  -27.6060 H   0  0  0  0  0  0  0  0  0  0  0  0
  -44.7071   -7.2904  -29.8276 H   0  0  0  0  0  0  0  0  0  0  0  0
  -47.1668   -3.5185  -29.2437 H   0  0  0  0  0  0  0  0  0  0  0  0
  -42.8788   -4.4231  -32.3127 H   0  0  0  0  0  0  0  0  0  0  0  0
  -43.6407   -4.1515  -27.2629 H   0  0  0  0  0  0  0  0  0  0  0  0
  -42.9522   -1.8818  -26.5112 H   0  0  0  0  0  0  0  0  0  0  0  0
  -46.5413   -1.5668  -24.3260 H   0  0  0  0  0  0  0  0  0  0  0  0
  -47.7394   -4.7559  -25.3783 H   0  0  0  0  0  0  0  0  0  0  0  0
  -44.3586   -0.6314  -25.0628 H   0  0  0  0  0  0  0  0  0  0  0  0
  1 15  1  0  0  0  0
  1  2  1  0  0  0  0
  1  3  2  0  0  0  0
  2 22  1  0  0  0  0
  4  2  1  0  0  0  0
  4  6  1  0  0  0  0
  4  5  2  0  0  0  0
  6  7  2  0  0  0  0
  7  9  1  0  0  0  0
  7 23  1  0  0  0  0
  8  6  1  0  0  0  0
  8 11  1  0  0  0  0
  9 12  1  0  0  0  0
  9 13  2  0  0  0  0
 10  8  2  0  0  0  0
 10 14  1  0  0  0  0
 11 24  1  0  0  0  0
 13 10  1  0  0  0  0
 13 25  1  0  0  0  0
 15 16  2  0  0  0  0
 16 18  1  0  0  0  0
 16 26  1  0  0  0  0
 17 15  1  0  0  0  0
 17 20  1  0  0  0  0
 18 21  2  0  0  0  0
 18 27  1  0  0  0  0
 19 17  2  0  0  0  0
 19 28  1  0  0  0  0
 20 29  1  0  0  0  0
 21 19  1  0  0  0  0
 21 30  1  0  0  0  0
M  END
>  <minimizedAffinity>
-7.59899

$$$$

 OpenBabel07052409263D

 29 30  0  0  0  0  0  0  0  0999 V2000
  -49.6848   -2.0964  -22.1955 C   0  0  0  0  0  0  0  0  0  0  0  0
  -49.4586   -1.8727  -20.8658 N   0  0  0  0  0  0  0  0  0  0  0  0
  -49.6280   -3.2134  -22.6960 O   0  0  0  0  0  0  0  0  0  0  0  0
  -48.2911   -1.2411  -20.5387 C   0  0  0  0  0  0  0  0  0  0  0  0
  -47.1656   -1.6172  -20.8419 O   0  0  0  0  0  0  0  0  0  0  0  0
  -48.4684   -0.0867  -19.6253 C   0  0  0  0  0  0  0  0  0  0  0  0
  -49.4101    0.8297  -19.9192 C   0  0  0  0  0  0  0  0  0  0  0  0
  -47.9153   -0.1362  -18.2773 C   0  0  0  0  0  0  0  0  0  0  0  0
  -50.2117    1.3788  -18.8361 C   0  0  0  0  0  0  0  0  0  0  0  0
  -48.5801    0.4678  -17.2682 C   0  0  0  0  0  0  0  0  0  0  0  0
  -46.7084   -0.7829  -18.1103 O   0  0  0  0  0  0  0  0  0  0  0  0
  -51.7399    2.3424  -19.2848 Br  0  0  0  0  0  0  0  0  0  0  0  0
  -49.8114    1.1998  -17.5619 C   0  0  0  0  0  0  0  0  0  0  0  0
  -47.9926    0.4658  -15.4963 Br  0  0  0  0  0  0  0  0  0  0  0  0
  -50.0730   -0.9017  -22.9755 C   0  0  0  0  0  0  0  0  0  0  0  0
  -51.1946   -0.2418  -22.6234 C   0  0  0  0  0  0  0  0  0  0  0  0
  -49.3475   -0.5140  -24.1681 C   0  0  0  0  0  0  0  0  0  0  0  0
  -51.7534    0.7529  -23.5278 C   0  0  0  0  0  0  0  0  0  0  0  0
  -49.8393    0.4321  -24.9848 C   0  0  0  0  0  0  0  0  0  0  0  0
  -48.1846   -1.1305  -24.4578 F   0  0  0  0  0  0  0  0  0  0  0  0
  -51.1011    1.0782  -24.6596 C   0  0  0  0  0  0  0  0  0  0  0  0
  -50.1047   -2.1527  -20.1777 H   0  0  0  0  0  0  0  0  0  0  0  0
  -49.5603    1.1364  -20.8930 H   0  0  0  0  0  0  0  0  0  0  0  0
  -46.2877   -1.1865  -18.8438 H   0  0  0  0  0  0  0  0  0  0  0  0
  -50.3776    1.5818  -16.7883 H   0  0  0  0  0  0  0  0  0  0  0  0
  -51.6532   -0.4401  -21.7204 H   0  0  0  0  0  0  0  0  0  0  0  0
  -52.6508    1.2092  -23.3009 H   0  0  0  0  0  0  0  0  0  0  0  0
  -49.3246    0.6992  -25.8385 H   0  0  0  0  0  0  0  0  0  0  0  0
  -51.4968    1.7867  -25.2971 H   0  0  0  0  0  0  0  0  0  0  0  0
  1 15  1  0  0  0  0
  1  2  1  0  0  0  0
  1  3  2  0  0  0  0
  2 22  1  0  0  0  0
  4  2  1  0  0  0  0
  4  6  1  0  0  0  0
  4  5  2  0  0  0  0
  6  7  2  0  0  0  0
  7  9  1  0  0  0  0
  7 23  1  0  0  0  0
  8  6  1  0  0  0  0
  8 11  1  0  0  0  0
  9 12  1  0  0  0  0
  9 13  2  0  0  0  0
 10  8  2  0  0  0  0
 10 14  1  0  0  0  0
 11 24  1  0  0  0  0
 13 10  1  0  0  0  0
 13 25  1  0  0  0  0
 15 16  2  0  0  0  0
 16 18  1  0  0  0  0
 16 26  1  0  0  0  0
 17 15  1  0  0  0  0
 17 20  1  0  0  0  0
 18 21  2  0  0  0  0
 18 27  1  0  0  0  0
 19 17  2  0  0  0  0
 19 28  1  0  0  0  0
 21 19  1  0  0  0  0
 21 29  1  0  0  0  0
M  END
>  <minimizedAffinity>
-7.63156

$$$$

 OpenBabel07052409263D

 29 30  0  0  0  0  0  0  0  0999 V2000
  -48.5213   -1.5552  -24.4660 C   0  0  0  0  0  0  0  0  0  0  0  0
  -49.6940   -2.2489  -24.3204 N   0  0  0  0  0  0  0  0  0  0  0  0
  -48.4332   -0.4325  -24.9436 O   0  0  0  0  0  0  0  0  0  0  0  0
  -50.5444   -1.8255  -23.3354 C   0  0  0  0  0  0  0  0  0  0  0  0
  -51.6095   -1.2678  -23.5762 O   0  0  0  0  0  0  0  0  0  0  0  0
  -50.1574   -2.2304  -21.9573 C   0  0  0  0  0  0  0  0  0  0  0  0
  -49.7459   -1.2286  -21.1525 C   0  0  0  0  0  0  0  0  0  0  0  0
  -49.6724   -3.5827  -21.7105 C   0  0  0  0  0  0  0  0  0  0  0  0
  -48.5546   -1.4119  -20.3341 C   0  0  0  0  0  0  0  0  0  0  0  0
  -48.6274   -3.7849  -20.8779 C   0  0  0  0  0  0  0  0  0  0  0  0
  -50.3599   -4.5838  -22.3564 O   0  0  0  0  0  0  0  0  0  0  0  0
  -47.8545    0.0813  -19.4676 Br  0  0  0  0  0  0  0  0  0  0  0  0
  -48.0205   -2.6420  -20.2028 C   0  0  0  0  0  0  0  0  0  0  0  0
  -47.9328   -5.4797  -20.5132 Br  0  0  0  0  0  0  0  0  0  0  0  0
  -47.3204   -2.3551  -24.1132 C   0  0  0  0  0  0  0  0  0  0  0  0
  -47.2566   -3.6352  -24.5361 C   0  0  0  0  0  0  0  0  0  0  0  0
  -46.2581   -1.8095  -23.2763 C   0  0  0  0  0  0  0  0  0  0  0  0
  -46.3193   -4.5464  -23.8945 C   0  0  0  0  0  0  0  0  0  0  0  0
  -45.3478   -2.6409  -22.7361 C   0  0  0  0  0  0  0  0  0  0  0  0
  -45.4129   -4.0607  -23.0289 C   0  0  0  0  0  0  0  0  0  0  0  0
  -44.5207   -4.8776  -22.4349 F   0  0  0  0  0  0  0  0  0  0  0  0
  -49.9144   -3.0157  -24.8972 H   0  0  0  0  0  0  0  0  0  0  0  0
  -50.2703   -0.3405  -21.1170 H   0  0  0  0  0  0  0  0  0  0  0  0
  -51.0767   -4.3709  -22.9211 H   0  0  0  0  0  0  0  0  0  0  0  0
  -47.1781   -2.7767  -19.6220 H   0  0  0  0  0  0  0  0  0  0  0  0
  -47.8636   -3.9636  -25.3034 H   0  0  0  0  0  0  0  0  0  0  0  0
  -46.2047   -0.7941  -23.0996 H   0  0  0  0  0  0  0  0  0  0  0  0
  -46.3507   -5.5567  -24.1027 H   0  0  0  0  0  0  0  0  0  0  0  0
  -44.6087   -2.2712  -22.1180 H   0  0  0  0  0  0  0  0  0  0  0  0
  1 15  1  0  0  0  0
  1  2  1  0  0  0  0
  1  3  2  0  0  0  0
  2 22  1  0  0  0  0
  4  2  1  0  0  0  0
  4  6  1  0  0  0  0
  4  5  2  0  0  0  0
  6  7  2  0  0  0  0
  7  9  1  0  0  0  0
  7 23  1  0  0  0  0
  8  6  1  0  0  0  0
  8 11  1  0  0  0  0
  9 12  1  0  0  0  0
  9 13  2  0  0  0  0
 10  8  2  0  0  0  0
 10 14  1  0  0  0  0
 11 24  1  0  0  0  0
 13 10  1  0  0  0  0
 13 25  1  0  0  0  0
 15 16  2  0  0  0  0
 16 18  1  0  0  0  0
 16 26  1  0  0  0  0
 17 15  1  0  0  0  0
 17 27  1  0  0  0  0
 18 20  2  0  0  0  0
 18 28  1  0  0  0  0
 19 17  2  0  0  0  0
 19 29  1  0  0  0  0
 20 19  1  0  0  0  0
 20 21  1  0  0  0  0
M  END
>  <minimizedAffinity>
-6.08127

$$$$

 OpenBabel07052409263D

 29 30  0  0  0  0  0  0  0  0999 V2000
  -51.5961   -0.8626  -25.4604 C   0  0  0  0  0  0  0  0  0  0  0  0
  -51.7607   -1.0433  -24.1126 N   0  0  0  0  0  0  0  0  0  0  0  0
  -52.0258   -1.6329  -26.3090 O   0  0  0  0  0  0  0  0  0  0  0  0
  -50.8665   -1.8535  -23.4678 C   0  0  0  0  0  0  0  0  0  0  0  0
  -51.1961   -2.9235  -22.9670 O   0  0  0  0  0  0  0  0  0  0  0  0
  -49.5103   -1.2755  -23.2796 C   0  0  0  0  0  0  0  0  0  0  0  0
  -49.3375   -0.5276  -22.1708 C   0  0  0  0  0  0  0  0  0  0  0  0
  -48.3553   -1.9090  -23.9005 C   0  0  0  0  0  0  0  0  0  0  0  0
  -48.1028   -0.6477  -21.4096 C   0  0  0  0  0  0  0  0  0  0  0  0
  -47.1778   -1.9587  -23.2409 C   0  0  0  0  0  0  0  0  0  0  0  0
  -48.5611   -2.4067  -25.1666 O   0  0  0  0  0  0  0  0  0  0  0  0
  -48.0118    0.2012  -19.7537 Br  0  0  0  0  0  0  0  0  0  0  0  0
  -47.0674   -1.3390  -21.9253 C   0  0  0  0  0  0  0  0  0  0  0  0
  -45.6488   -2.7574  -23.9547 Br  0  0  0  0  0  0  0  0  0  0  0  0
  -50.9718    0.4392  -25.8142 C   0  0  0  0  0  0  0  0  0  0  0  0
  -50.4996    1.2079  -24.8138 C   0  0  0  0  0  0  0  0  0  0  0  0
  -51.0653    0.9855  -27.1620 C   0  0  0  0  0  0  0  0  0  0  0  0
  -50.3985    2.6456  -25.0056 C   0  0  0  0  0  0  0  0  0  0  0  0
  -50.8929    2.3060  -27.3570 C   0  0  0  0  0  0  0  0  0  0  0  0
  -50.5893    3.1724  -26.2289 C   0  0  0  0  0  0  0  0  0  0  0  0
  -52.4960   -0.6059  -23.6254 H   0  0  0  0  0  0  0  0  0  0  0  0
  -50.0756    0.1253  -21.8642 H   0  0  0  0  0  0  0  0  0  0  0  0
  -49.4063   -2.3381  -25.5653 H   0  0  0  0  0  0  0  0  0  0  0  0
  -46.1919   -1.4304  -21.3866 H   0  0  0  0  0  0  0  0  0  0  0  0
  -50.2123    0.7803  -23.9196 H   0  0  0  0  0  0  0  0  0  0  0  0
  -51.2624    0.3638  -27.9618 H   0  0  0  0  0  0  0  0  0  0  0  0
  -50.1810    3.2603  -24.2057 H   0  0  0  0  0  0  0  0  0  0  0  0
  -50.9760    2.7033  -28.3058 H   0  0  0  0  0  0  0  0  0  0  0  0
  -50.5201    4.1928  -26.3669 H   0  0  0  0  0  0  0  0  0  0  0  0
  1 15  1  0  0  0  0
  1  2  1  0  0  0  0
  1  3  2  0  0  0  0
  2 21  1  0  0  0  0
  4  2  1  0  0  0  0
  4  6  1  0  0  0  0
  4  5  2  0  0  0  0
  6  7  2  0  0  0  0
  7  9  1  0  0  0  0
  7 22  1  0  0  0  0
  8  6  1  0  0  0  0
  8 11  1  0  0  0  0
  9 12  1  0  0  0  0
  9 13  2  0  0  0  0
 10  8  2  0  0  0  0
 10 14  1  0  0  0  0
 11 23  1  0  0  0  0
 13 10  1  0  0  0  0
 13 24  1  0  0  0  0
 15 16  2  0  0  0  0
 16 18  1  0  0  0  0
 16 25  1  0  0  0  0
 17 15  1  0  0  0  0
 17 26  1  0  0  0  0
 18 20  2  0  0  0  0
 18 27  1  0  0  0  0
 19 17  2  0  0  0  0
 19 28  1  0  0  0  0
 20 19  1  0  0  0  0
 20 29  1  0  0  0  0
M  END
>  <minimizedAffinity>
-8.00403

$$$$

 OpenBabel07052409263D

 29 30  0  0  0  0  0  0  0  0999 V2000
  -49.6301   -2.3163  -22.0910 C   0  0  0  0  0  0  0  0  0  0  0  0
  -49.4262   -2.0135  -20.7738 N   0  0  0  0  0  0  0  0  0  0  0  0
  -49.5941   -3.4631  -22.5199 O   0  0  0  0  0  0  0  0  0  0  0  0
  -48.2543   -1.3817  -20.4618 C   0  0  0  0  0  0  0  0  0  0  0  0
  -47.1304   -1.7909  -20.7229 O   0  0  0  0  0  0  0  0  0  0  0  0
  -48.4335   -0.1665  -19.6315 C   0  0  0  0  0  0  0  0  0  0  0  0
  -49.3884    0.7122  -19.9909 C   0  0  0  0  0  0  0  0  0  0  0  0
  -47.9026   -0.1289  -18.2747 C   0  0  0  0  0  0  0  0  0  0  0  0
  -50.2253    1.2944  -18.9526 C   0  0  0  0  0  0  0  0  0  0  0  0
  -48.6007    0.5099  -17.3106 C   0  0  0  0  0  0  0  0  0  0  0  0
  -46.6834   -0.7344  -18.0546 O   0  0  0  0  0  0  0  0  0  0  0  0
  -51.7696    2.1896  -19.4794 Br  0  0  0  0  0  0  0  0  0  0  0  0
  -49.8448    1.1925  -17.6638 C   0  0  0  0  0  0  0  0  0  0  0  0
  -48.0452    0.6174  -15.5318 Br  0  0  0  0  0  0  0  0  0  0  0  0
  -49.9677   -1.1629  -22.9538 C   0  0  0  0  0  0  0  0  0  0  0  0
  -51.1145   -0.4937  -22.7151 C   0  0  0  0  0  0  0  0  0  0  0  0
  -49.1198   -0.7828  -24.0678 C   0  0  0  0  0  0  0  0  0  0  0  0
  -51.5487    0.5338  -23.6520 C   0  0  0  0  0  0  0  0  0  0  0  0
  -49.5029    0.1852  -24.9159 C   0  0  0  0  0  0  0  0  0  0  0  0
  -47.9530   -1.4314  -24.2534 F   0  0  0  0  0  0  0  0  0  0  0  0
  -50.7682    0.8535  -24.6981 C   0  0  0  0  0  0  0  0  0  0  0  0
  -51.1462    1.8060  -25.5717 F   0  0  0  0  0  0  0  0  0  0  0  0
  -50.0907   -2.2393  -20.0833 H   0  0  0  0  0  0  0  0  0  0  0  0
  -49.5238    0.9673  -20.9817 H   0  0  0  0  0  0  0  0  0  0  0  0
  -46.2401   -1.1648  -18.7590 H   0  0  0  0  0  0  0  0  0  0  0  0
  -50.4352    1.5988  -16.9213 H   0  0  0  0  0  0  0  0  0  0  0  0
  -51.6783   -0.7075  -21.8775 H   0  0  0  0  0  0  0  0  0  0  0  0
  -52.4515    1.0140  -23.5130 H   0  0  0  0  0  0  0  0  0  0  0  0
  -48.9028    0.4493  -25.7129 H   0  0  0  0  0  0  0  0  0  0  0  0
  1 15  1  0  0  0  0
  1  2  1  0  0  0  0
  1  3  2  0  0  0  0
  2 23  1  0  0  0  0
  4  2  1  0  0  0  0
  4  6  1  0  0  0  0
  4  5  2  0  0  0  0
  6  7  2  0  0  0  0
  7  9  1  0  0  0  0
  7 24  1  0  0  0  0
  8  6  1  0  0  0  0
  8 11  1  0  0  0  0
  9 12  1  0  0  0  0
  9 13  2  0  0  0  0
 10  8  2  0  0  0  0
 10 14  1  0  0  0  0
 11 25  1  0  0  0  0
 13 10  1  0  0  0  0
 13 26  1  0  0  0  0
 15 16  2  0  0  0  0
 16 18  1  0  0  0  0
 16 27  1  0  0  0  0
 17 15  1  0  0  0  0
 17 20  1  0  0  0  0
 18 21  2  0  0  0  0
 18 28  1  0  0  0  0
 19 17  2  0  0  0  0
 19 29  1  0  0  0  0
 21 19  1  0  0  0  0
 21 22  1  0  0  0  0
M  END
>  <minimizedAffinity>
-7.84870

$$$$

 OpenBabel07052409263D

 19 19  0  0  0  0  0  0  0  0999 V2000
  -50.5879    1.2007  -24.1707 C   0  0  0  0  0  0  0  0  0  0  0  0
  -51.3688    1.5327  -23.1223 C   0  0  0  0  0  0  0  0  0  0  0  0
  -49.7170    0.0357  -24.0691 C   0  0  0  0  0  0  0  0  0  0  0  0
  -51.0540    1.0082  -21.7949 C   0  0  0  0  0  0  0  0  0  0  0  0
  -49.4929   -0.5222  -22.8678 C   0  0  0  0  0  0  0  0  0  0  0  0
  -49.1798   -0.5022  -25.2176 O   0  0  0  0  0  0  0  0  0  0  0  0
  -52.0200    1.7549  -20.1345 I   0  0  0  0  0  0  0  0  0  0  0  0
  -50.1428    0.0188  -21.6830 C   0  0  0  0  0  0  0  0  0  0  0  0
  -50.4798    2.1201  -25.3194 C   0  0  0  0  0  0  0  0  0  0  0  0
  -50.1702    3.2968  -25.1891 O   0  0  0  0  0  0  0  0  0  0  0  0
  -50.8380    1.5170  -26.4770 O   0  0  0  0  0  0  0  0  0  0  0  0
  -51.1028    2.4508  -27.5219 C   0  0  0  0  0  0  0  0  0  0  0  0
  -52.1828    2.1527  -23.2564 H   0  0  0  0  0  0  0  0  0  0  0  0
  -48.8606   -1.3336  -22.7850 H   0  0  0  0  0  0  0  0  0  0  0  0
  -49.3473   -0.0989  -26.0466 H   0  0  0  0  0  0  0  0  0  0  0  0
  -49.9053   -0.3565  -20.7515 H   0  0  0  0  0  0  0  0  0  0  0  0
  -51.3803    1.9228  -28.4102 H   0  0  0  0  0  0  0  0  0  0  0  0
  -50.2247    3.0319  -27.7119 H   0  0  0  0  0  0  0  0  0  0  0  0
  -51.9021    3.0983  -27.2275 H   0  0  0  0  0  0  0  0  0  0  0  0
  1  2  2  0  0  0  0
  2  4  1  0  0  0  0
  2 13  1  0  0  0  0
  3  1  1  0  0  0  0
  3  6  1  0  0  0  0
  4  7  1  0  0  0  0
  4  8  2  0  0  0  0
  5  3  2  0  0  0  0
  5 14  1  0  0  0  0
  6 15  1  0  0  0  0
  8  5  1  0  0  0  0
  8 16  1  0  0  0  0
  9  1  1  0  0  0  0
  9 11  1  0  0  0  0
  9 10  2  0  0  0  0
 11 12  1  0  0  0  0
 12 17  1  0  0  0  0
 12 18  1  0  0  0  0
 12 19  1  0  0  0  0
M  END
>  <minimizedAffinity>
-5.77093

$$$$

 OpenBabel07052409263D

 18 18  0  0  0  0  0  0  0  0999 V2000
  -51.6700    1.0526  -22.0147 C   0  0  0  0  0  0  0  0  0  0  0  0
  -52.6323    1.6924  -21.3189 C   0  0  0  0  0  0  0  0  0  0  0  0
  -50.4575    0.6050  -21.3359 C   0  0  0  0  0  0  0  0  0  0  0  0
  -52.3197    2.2456  -20.0122 C   0  0  0  0  0  0  0  0  0  0  0  0
  -50.2115    1.0484  -20.0857 C   0  0  0  0  0  0  0  0  0  0  0  0
  -49.3174   -0.6077  -22.1801 Br  0  0  0  0  0  0  0  0  0  0  0  0
  -51.1516    1.9382  -19.4212 C   0  0  0  0  0  0  0  0  0  0  0  0
  -51.7716    1.1332  -23.4840 C   0  0  0  0  0  0  0  0  0  0  0  0
  -52.5323    0.4563  -24.1577 O   0  0  0  0  0  0  0  0  0  0  0  0
  -50.9423    2.1006  -23.9499 O   0  0  0  0  0  0  0  0  0  0  0  0
  -50.2431    1.7054  -25.1284 C   0  0  0  0  0  0  0  0  0  0  0  0
  -53.5820    1.7881  -21.7111 H   0  0  0  0  0  0  0  0  0  0  0  0
  -52.9909    2.8714  -19.5400 H   0  0  0  0  0  0  0  0  0  0  0  0
  -49.3510    0.7546  -19.5975 H   0  0  0  0  0  0  0  0  0  0  0  0
  -50.9218    2.3335  -18.4960 H   0  0  0  0  0  0  0  0  0  0  0  0
  -49.6067    2.5032  -25.4500 H   0  0  0  0  0  0  0  0  0  0  0  0
  -50.9471    1.4771  -25.9012 H   0  0  0  0  0  0  0  0  0  0  0  0
  -49.6509    0.8393  -24.9183 H   0  0  0  0  0  0  0  0  0  0  0  0
  1  2  2  0  0  0  0
  2  4  1  0  0  0  0
  2 12  1  0  0  0  0
  3  1  1  0  0  0  0
  3  6  1  0  0  0  0
  4  7  2  0  0  0  0
  4 13  1  0  0  0  0
  5  3  2  0  0  0  0
  5 14  1  0  0  0  0
  7  5  1  0  0  0  0
  7 15  1  0  0  0  0
  8  1  1  0  0  0  0
  8 10  1  0  0  0  0
  8  9  2  0  0  0  0
 10 11  1  0  0  0  0
 11 16  1  0  0  0  0
 11 17  1  0  0  0  0
 11 18  1  0  0  0  0
M  END
>  <minimizedAffinity>
-5.03787

$$$$

 OpenBabel07052409263D

 18 18  0  0  0  0  0  0  0  0999 V2000
  -51.7022    1.0471  -22.1017 C   0  0  0  0  0  0  0  0  0  0  0  0
  -52.6506    1.6740  -21.3746 C   0  0  0  0  0  0  0  0  0  0  0  0
  -50.4415    0.6713  -21.4770 C   0  0  0  0  0  0  0  0  0  0  0  0
  -52.3253    2.1821  -20.0517 C   0  0  0  0  0  0  0  0  0  0  0  0
  -50.1670    1.0894  -20.2263 C   0  0  0  0  0  0  0  0  0  0  0  0
  -49.3326   -0.3463  -22.3175 Cl  0  0  0  0  0  0  0  0  0  0  0  0
  -51.1302    1.9033  -19.5014 C   0  0  0  0  0  0  0  0  0  0  0  0
  -51.8355    1.1328  -23.5680 C   0  0  0  0  0  0  0  0  0  0  0  0
  -52.5672    0.4295  -24.2453 O   0  0  0  0  0  0  0  0  0  0  0  0
  -51.0081    2.1046  -24.0287 O   0  0  0  0  0  0  0  0  0  0  0  0
  -50.3031    1.7164  -25.2060 C   0  0  0  0  0  0  0  0  0  0  0  0
  -53.6023    1.7922  -21.7558 H   0  0  0  0  0  0  0  0  0  0  0  0
  -53.0105    2.7559  -19.5357 H   0  0  0  0  0  0  0  0  0  0  0  0
  -49.2720    0.8319  -19.7817 H   0  0  0  0  0  0  0  0  0  0  0  0
  -50.8964    2.2670  -18.5643 H   0  0  0  0  0  0  0  0  0  0  0  0
  -49.6689    2.5179  -25.5226 H   0  0  0  0  0  0  0  0  0  0  0  0
  -51.0034    1.4879  -25.9821 H   0  0  0  0  0  0  0  0  0  0  0  0
  -49.7080    0.8521  -24.9967 H   0  0  0  0  0  0  0  0  0  0  0  0
  1  2  2  0  0  0  0
  2  4  1  0  0  0  0
  2 12  1  0  0  0  0
  3  1  1  0  0  0  0
  3  6  1  0  0  0  0
  4  7  2  0  0  0  0
  4 13  1  0  0  0  0
  5  3  2  0  0  0  0
  5 14  1  0  0  0  0
  7  5  1  0  0  0  0
  7 15  1  0  0  0  0
  8  1  1  0  0  0  0
  8 10  1  0  0  0  0
  8  9  2  0  0  0  0
 10 11  1  0  0  0  0
 11 16  1  0  0  0  0
 11 17  1  0  0  0  0
 11 18  1  0  0  0  0
M  END
>  <minimizedAffinity>
-5.04400

$$$$

 OpenBabel07052409263D

 18 18  0  0  0  0  0  0  0  0999 V2000
  -51.5116    1.0911  -22.0059 C   0  0  0  0  0  0  0  0  0  0  0  0
  -52.5427    1.6570  -21.3443 C   0  0  0  0  0  0  0  0  0  0  0  0
  -50.3320    0.6571  -21.2694 C   0  0  0  0  0  0  0  0  0  0  0  0
  -52.3740    2.0562  -19.9550 C   0  0  0  0  0  0  0  0  0  0  0  0
  -50.2025    0.9717  -19.9661 C   0  0  0  0  0  0  0  0  0  0  0  0
  -49.1350   -0.3032  -22.0551 Cl  0  0  0  0  0  0  0  0  0  0  0  0
  -51.2475    1.7285  -19.2968 C   0  0  0  0  0  0  0  0  0  0  0  0
  -51.0159    2.1703  -17.6505 Cl  0  0  0  0  0  0  0  0  0  0  0  0
  -51.4633    1.3304  -23.4612 C   0  0  0  0  0  0  0  0  0  0  0  0
  -50.7250    2.1304  -24.0117 O   0  0  0  0  0  0  0  0  0  0  0  0
  -52.4017    0.5607  -24.0664 O   0  0  0  0  0  0  0  0  0  0  0  0
  -51.8773   -0.6867  -24.5182 C   0  0  0  0  0  0  0  0  0  0  0  0
  -53.4459    1.8059  -21.8209 H   0  0  0  0  0  0  0  0  0  0  0  0
  -53.1166    2.5893  -19.4760 H   0  0  0  0  0  0  0  0  0  0  0  0
  -49.3630    0.6760  -19.4438 H   0  0  0  0  0  0  0  0  0  0  0  0
  -52.6558   -1.2524  -24.9860 H   0  0  0  0  0  0  0  0  0  0  0  0
  -51.4905   -1.2341  -23.6841 H   0  0  0  0  0  0  0  0  0  0  0  0
  -51.0923   -0.5092  -25.2233 H   0  0  0  0  0  0  0  0  0  0  0  0
  1  2  2  0  0  0  0
  2  4  1  0  0  0  0
  2 13  1  0  0  0  0
  3  1  1  0  0  0  0
  3  6  1  0  0  0  0
  4  7  2  0  0  0  0
  4 14  1  0  0  0  0
  5  3  2  0  0  0  0
  5 15  1  0  0  0  0
  7  5  1  0  0  0  0
  7  8  1  0  0  0  0
  9  1  1  0  0  0  0
  9 11  1  0  0  0  0
  9 10  2  0  0  0  0
 11 12  1  0  0  0  0
 12 16  1  0  0  0  0
 12 17  1  0  0  0  0
 12 18  1  0  0  0  0
M  END
>  <minimizedAffinity>
-5.29730

$$$$

 OpenBabel07052409263D

 18 18  0  0  0  0  0  0  0  0999 V2000
  -51.9992    1.0894  -23.1215 C   0  0  0  0  0  0  0  0  0  0  0  0
  -50.8313    0.8961  -22.4773 C   0  0  0  0  0  0  0  0  0  0  0  0
  -53.1058    1.7594  -22.4525 C   0  0  0  0  0  0  0  0  0  0  0  0
  -50.7094    1.2780  -21.0773 C   0  0  0  0  0  0  0  0  0  0  0  0
  -52.9809    2.1323  -21.1648 C   0  0  0  0  0  0  0  0  0  0  0  0
  -51.7416    1.8708  -20.4501 C   0  0  0  0  0  0  0  0  0  0  0  0
  -51.6317    2.3408  -18.7985 Cl  0  0  0  0  0  0  0  0  0  0  0  0
  -52.1121    0.6422  -24.5242 C   0  0  0  0  0  0  0  0  0  0  0  0
  -52.9455   -0.1481  -24.9352 O   0  0  0  0  0  0  0  0  0  0  0  0
  -51.1583    1.2524  -25.2694 O   0  0  0  0  0  0  0  0  0  0  0  0
  -51.1761    0.8214  -26.6281 C   0  0  0  0  0  0  0  0  0  0  0  0
  -50.0278    0.4797  -22.9734 H   0  0  0  0  0  0  0  0  0  0  0  0
  -53.9824    1.9476  -22.9635 H   0  0  0  0  0  0  0  0  0  0  0  0
  -49.8317    1.0940  -20.5665 H   0  0  0  0  0  0  0  0  0  0  0  0
  -53.7640    2.6033  -20.6853 H   0  0  0  0  0  0  0  0  0  0  0  0
  -50.4083    1.3293  -27.1735 H   0  0  0  0  0  0  0  0  0  0  0  0
  -52.1287    1.0454  -27.0609 H   0  0  0  0  0  0  0  0  0  0  0  0
  -51.0047   -0.2340  -26.6698 H   0  0  0  0  0  0  0  0  0  0  0  0
  1  2  2  0  0  0  0
  2  4  1  0  0  0  0
  2 12  1  0  0  0  0
  3  1  1  0  0  0  0
  3 13  1  0  0  0  0
  4  6  2  0  0  0  0
  4 14  1  0  0  0  0
  5  3  2  0  0  0  0
  5 15  1  0  0  0  0
  6  5  1  0  0  0  0
  6  7  1  0  0  0  0
  8  1  1  0  0  0  0
  8 10  1  0  0  0  0
  8  9  2  0  0  0  0
 10 11  1  0  0  0  0
 11 16  1  0  0  0  0
 11 17  1  0  0  0  0
 11 18  1  0  0  0  0
M  END
>  <minimizedAffinity>
-5.16480

$$$$

 OpenBabel07052409263D

 18 18  0  0  0  0  0  0  0  0999 V2000
  -50.9451   -0.2643  -23.8608 C   0  0  0  0  0  0  0  0  0  0  0  0
  -50.1906   -0.3945  -22.7523 C   0  0  0  0  0  0  0  0  0  0  0  0
  -52.0515    0.6807  -23.8871 C   0  0  0  0  0  0  0  0  0  0  0  0
  -50.5619    0.3236  -21.5414 C   0  0  0  0  0  0  0  0  0  0  0  0
  -52.3713    1.3677  -22.7744 C   0  0  0  0  0  0  0  0  0  0  0  0
  -51.6073    1.1737  -21.5479 C   0  0  0  0  0  0  0  0  0  0  0  0
  -52.1229    2.1312  -20.0347 Br  0  0  0  0  0  0  0  0  0  0  0  0
  -50.6229   -1.1033  -25.0325 C   0  0  0  0  0  0  0  0  0  0  0  0
  -49.4984   -1.4604  -25.3425 O   0  0  0  0  0  0  0  0  0  0  0  0
  -51.7625   -1.3935  -25.7068 O   0  0  0  0  0  0  0  0  0  0  0  0
  -51.5827   -1.3316  -27.1195 C   0  0  0  0  0  0  0  0  0  0  0  0
  -49.3546   -0.9995  -22.7614 H   0  0  0  0  0  0  0  0  0  0  0  0
  -52.5894    0.8238  -24.7562 H   0  0  0  0  0  0  0  0  0  0  0  0
  -50.0217    0.1808  -20.6738 H   0  0  0  0  0  0  0  0  0  0  0  0
  -53.1596    2.0336  -22.7896 H   0  0  0  0  0  0  0  0  0  0  0  0
  -52.5055   -1.5672  -27.6072 H   0  0  0  0  0  0  0  0  0  0  0  0
  -50.8333   -2.0359  -27.4149 H   0  0  0  0  0  0  0  0  0  0  0  0
  -51.2744   -0.3453  -27.3969 H   0  0  0  0  0  0  0  0  0  0  0  0
  1  2  2  0  0  0  0
  2  4  1  0  0  0  0
  2 12  1  0  0  0  0
  3  1  1  0  0  0  0
  3 13  1  0  0  0  0
  4  6  2  0  0  0  0
  4 14  1  0  0  0  0
  5  3  2  0  0  0  0
  5 15  1  0  0  0  0
  6  5  1  0  0  0  0
  6  7  1  0  0  0  0
  8  1  1  0  0  0  0
  8 10  1  0  0  0  0
  8  9  2  0  0  0  0
 10 11  1  0  0  0  0
 11 16  1  0  0  0  0
 11 17  1  0  0  0  0
 11 18  1  0  0  0  0
M  END
>  <minimizedAffinity>
-5.18524

$$$$

 OpenBabel07052409263D

 18 18  0  0  0  0  0  0  0  0999 V2000
  -51.8606    0.9382  -22.8275 C   0  0  0  0  0  0  0  0  0  0  0  0
  -50.6782    0.6253  -22.2577 C   0  0  0  0  0  0  0  0  0  0  0  0
  -52.8667    1.6572  -22.0704 C   0  0  0  0  0  0  0  0  0  0  0  0
  -50.4222    1.0189  -20.8784 C   0  0  0  0  0  0  0  0  0  0  0  0
  -52.6339    2.0210  -20.7987 C   0  0  0  0  0  0  0  0  0  0  0  0
  -54.0453    1.9462  -22.6575 F   0  0  0  0  0  0  0  0  0  0  0  0
  -51.3634    1.6873  -20.1910 C   0  0  0  0  0  0  0  0  0  0  0  0
  -51.1474    2.0621  -18.9154 F   0  0  0  0  0  0  0  0  0  0  0  0
  -52.0454    0.6726  -24.2627 C   0  0  0  0  0  0  0  0  0  0  0  0
  -52.8509   -0.1186  -24.7248 O   0  0  0  0  0  0  0  0  0  0  0  0
  -51.2222    1.4762  -24.9796 O   0  0  0  0  0  0  0  0  0  0  0  0
  -50.8577    0.8916  -26.2281 C   0  0  0  0  0  0  0  0  0  0  0  0
  -49.9615    0.1118  -22.7941 H   0  0  0  0  0  0  0  0  0  0  0  0
  -49.5218    0.7853  -20.4314 H   0  0  0  0  0  0  0  0  0  0  0  0
  -53.3518    2.5320  -20.2616 H   0  0  0  0  0  0  0  0  0  0  0  0
  -50.2100    1.5580  -26.7584 H   0  0  0  0  0  0  0  0  0  0  0  0
  -51.7384    0.7128  -26.8089 H   0  0  0  0  0  0  0  0  0  0  0  0
  -50.3512   -0.0347  -26.0539 H   0  0  0  0  0  0  0  0  0  0  0  0
  1  2  2  0  0  0  0
  2  4  1  0  0  0  0
  2 13  1  0  0  0  0
  3  1  1  0  0  0  0
  3  6  1  0  0  0  0
  4  7  2  0  0  0  0
  4 14  1  0  0  0  0
  5  3  2  0  0  0  0
  5 15  1  0  0  0  0
  7  5  1  0  0  0  0
  7  8  1  0  0  0  0
  9  1  1  0  0  0  0
  9 11  1  0  0  0  0
  9 10  2  0  0  0  0
 11 12  1  0  0  0  0
 12 16  1  0  0  0  0
 12 17  1  0  0  0  0
 12 18  1  0  0  0  0
M  END
>  <minimizedAffinity>
-5.31444

$$$$

 OpenBabel07052409263D

 27 27  0  0  0  0  0  0  0  0999 V2000
  -51.3166    0.8221  -21.9494 C   0  0  0  0  0  0  0  0  0  0  0  0
  -50.6380   -0.3107  -22.2350 C   0  0  0  0  0  0  0  0  0  0  0  0
  -52.3024    1.3066  -22.9186 C   0  0  0  0  0  0  0  0  0  0  0  0
  -50.6887   -0.8876  -23.5693 C   0  0  0  0  0  0  0  0  0  0  0  0
  -52.3781    0.7568  -24.1442 C   0  0  0  0  0  0  0  0  0  0  0  0
  -51.4825   -0.3302  -24.5032 C   0  0  0  0  0  0  0  0  0  0  0  0
  -51.0361    1.6343  -20.6992 C   0  0  0  0  0  0  0  0  0  0  0  0
  -52.2658    1.7509  -19.7938 C   0  0  0  0  0  0  0  0  0  0  0  0
  -49.8357    1.0886  -19.9213 C   0  0  0  0  0  0  0  0  0  0  0  0
  -51.4093   -0.8378  -25.8867 C   0  0  0  0  0  0  0  0  0  0  0  0
  -51.9825   -1.8366  -26.2902 O   0  0  0  0  0  0  0  0  0  0  0  0
  -50.6079   -0.0319  -26.6261 O   0  0  0  0  0  0  0  0  0  0  0  0
  -51.3117    0.5869  -27.6996 C   0  0  0  0  0  0  0  0  0  0  0  0
  -50.0786   -0.7708  -21.4999 H   0  0  0  0  0  0  0  0  0  0  0  0
  -52.9423    2.0738  -22.6599 H   0  0  0  0  0  0  0  0  0  0  0  0
  -50.1204   -1.7180  -23.7985 H   0  0  0  0  0  0  0  0  0  0  0  0
  -53.0693    1.1055  -24.8266 H   0  0  0  0  0  0  0  0  0  0  0  0
  -50.7896    2.6209  -21.0320 H   0  0  0  0  0  0  0  0  0  0  0  0
  -52.5422    0.7794  -19.4408 H   0  0  0  0  0  0  0  0  0  0  0  0
  -53.0779    2.1734  -20.3478 H   0  0  0  0  0  0  0  0  0  0  0  0
  -52.0365    2.3814  -18.9602 H   0  0  0  0  0  0  0  0  0  0  0  0
  -50.0545    0.1000  -19.5753 H   0  0  0  0  0  0  0  0  0  0  0  0
  -49.6350    1.7234  -19.0837 H   0  0  0  0  0  0  0  0  0  0  0  0
  -48.9786    1.0610  -20.5613 H   0  0  0  0  0  0  0  0  0  0  0  0
  -50.6413    1.2108  -28.2529 H   0  0  0  0  0  0  0  0  0  0  0  0
  -52.1101    1.1813  -27.3070 H   0  0  0  0  0  0  0  0  0  0  0  0
  -51.7122   -0.1668  -28.3450 H   0  0  0  0  0  0  0  0  0  0  0  0
  1  3  1  0  0  0  0
  2  1  2  0  0  0  0
  2 14  1  0  0  0  0
  3  5  2  0  0  0  0
  3 15  1  0  0  0  0
  4  2  1  0  0  0  0
  4 16  1  0  0  0  0
  5  6  1  0  0  0  0
  5 17  1  0  0  0  0
  6  4  2  0  0  0  0
  7  1  1  0  0  0  0
  7  8  1  0  0  0  0
  7  9  1  0  0  0  0
  7 18  1  0  0  0  0
  8 19  1  0  0  0  0
  8 20  1  0  0  0  0
  8 21  1  0  0  0  0
  9 22  1  0  0  0  0
  9 23  1  0  0  0  0
  9 24  1  0  0  0  0
 10  6  1  0  0  0  0
 10 12  1  0  0  0  0
 10 11  2  0  0  0  0
 12 13  1  0  0  0  0
 13 25  1  0  0  0  0
 13 26  1  0  0  0  0
 13 27  1  0  0  0  0
M  END
>  <minimizedAffinity>
-5.99525

$$$$

 OpenBabel07052409263D

 29 30  0  0  0  0  0  0  0  0999 V2000
  -50.9621    0.6104  -22.3216 C   0  0  0  0  0  0  0  0  0  0  0  0
  -50.9051    1.5247  -23.3169 C   0  0  0  0  0  0  0  0  0  0  0  0
  -51.1020   -0.8014  -22.6987 C   0  0  0  0  0  0  0  0  0  0  0  0
  -51.2836    1.1688  -24.6761 C   0  0  0  0  0  0  0  0  0  0  0  0
  -51.3570   -1.1534  -23.9719 C   0  0  0  0  0  0  0  0  0  0  0  0
  -51.4734   -0.1259  -24.9940 C   0  0  0  0  0  0  0  0  0  0  0  0
  -50.9600    1.0577  -20.9265 C   0  0  0  0  0  0  0  0  0  0  0  0
  -49.8868    0.7663  -20.1542 C   0  0  0  0  0  0  0  0  0  0  0  0
  -52.0799    1.7664  -20.2919 C   0  0  0  0  0  0  0  0  0  0  0  0
  -49.9397    0.8949  -18.7011 C   0  0  0  0  0  0  0  0  0  0  0  0
  -52.1103    1.9557  -18.9603 C   0  0  0  0  0  0  0  0  0  0  0  0
  -53.0645    2.2151  -21.1395 O   0  0  0  0  0  0  0  0  0  0  0  0
  -48.3682    0.2258  -17.5443 I   0  0  0  0  0  0  0  0  0  0  0  0
  -51.0177    1.4717  -18.1341 C   0  0  0  0  0  0  0  0  0  0  0  0
  -51.8759   -0.4619  -26.3738 C   0  0  0  0  0  0  0  0  0  0  0  0
  -52.0024   -1.5956  -26.8063 O   0  0  0  0  0  0  0  0  0  0  0  0
  -52.0871    0.6808  -27.0727 O   0  0  0  0  0  0  0  0  0  0  0  0
  -51.1541    0.8394  -28.1383 C   0  0  0  0  0  0  0  0  0  0  0  0
  -50.5897    2.4853  -23.1100 H   0  0  0  0  0  0  0  0  0  0  0  0
  -51.0035   -1.5333  -21.9779 H   0  0  0  0  0  0  0  0  0  0  0  0
  -51.4057    1.9030  -25.3910 H   0  0  0  0  0  0  0  0  0  0  0  0
  -51.4695   -2.1483  -24.2220 H   0  0  0  0  0  0  0  0  0  0  0  0
  -49.0136    0.4468  -20.6019 H   0  0  0  0  0  0  0  0  0  0  0  0
  -52.9090    2.4442  -18.5262 H   0  0  0  0  0  0  0  0  0  0  0  0
  -52.9971    2.0579  -22.0607 H   0  0  0  0  0  0  0  0  0  0  0  0
  -51.0673    1.5701  -17.1080 H   0  0  0  0  0  0  0  0  0  0  0  0
  -51.3592    1.7513  -28.6592 H   0  0  0  0  0  0  0  0  0  0  0  0
  -51.2416    0.0149  -28.8146 H   0  0  0  0  0  0  0  0  0  0  0  0
  -50.1611    0.8711  -27.7411 H   0  0  0  0  0  0  0  0  0  0  0  0
  1  7  1  0  0  0  0
  1  3  1  0  0  0  0
  2  1  2  0  0  0  0
  2 19  1  0  0  0  0
  3  5  2  0  0  0  0
  3 20  1  0  0  0  0
  4  2  1  0  0  0  0
  4 21  1  0  0  0  0
  5  6  1  0  0  0  0
  5 22  1  0  0  0  0
  6  4  2  0  0  0  0
  7  8  2  0  0  0  0
  8 10  1  0  0  0  0
  8 23  1  0  0  0  0
  9  7  1  0  0  0  0
  9 12  1  0  0  0  0
 10 13  1  0  0  0  0
 10 14  2  0  0  0  0
 11  9  2  0  0  0  0
 11 24  1  0  0  0  0
 12 25  1  0  0  0  0
 14 11  1  0  0  0  0
 14 26  1  0  0  0  0
 15  6  1  0  0  0  0
 15 17  1  0  0  0  0
 15 16  2  0  0  0  0
 17 18  1  0  0  0  0
 18 27  1  0  0  0  0
 18 28  1  0  0  0  0
 18 29  1  0  0  0  0
M  END
>  <minimizedAffinity>
-7.59544

$$$$

 OpenBabel07052409263D

 28 29  0  0  0  0  0  0  0  0999 V2000
  -51.2822    1.0375  -23.1961 C   0  0  0  0  0  0  0  0  0  0  0  0
  -50.5359    1.9976  -23.7899 C   0  0  0  0  0  0  0  0  0  0  0  0
  -52.0237    0.1075  -24.0576 C   0  0  0  0  0  0  0  0  0  0  0  0
  -50.4334    2.0816  -25.2390 C   0  0  0  0  0  0  0  0  0  0  0  0
  -51.9716    0.2128  -25.3974 C   0  0  0  0  0  0  0  0  0  0  0  0
  -51.1750    1.2631  -26.0081 C   0  0  0  0  0  0  0  0  0  0  0  0
  -51.3315    0.9623  -21.7324 C   0  0  0  0  0  0  0  0  0  0  0  0
  -52.3912    1.5263  -21.1065 C   0  0  0  0  0  0  0  0  0  0  0  0
  -50.2041    0.5255  -20.8819 C   0  0  0  0  0  0  0  0  0  0  0  0
  -52.2487    2.0917  -19.7765 C   0  0  0  0  0  0  0  0  0  0  0  0
  -50.1225    0.9559  -19.6060 C   0  0  0  0  0  0  0  0  0  0  0  0
  -48.9278   -0.6487  -21.5834 Br  0  0  0  0  0  0  0  0  0  0  0  0
  -51.1502    1.8194  -19.0531 C   0  0  0  0  0  0  0  0  0  0  0  0
  -51.1362    1.4466  -27.4723 C   0  0  0  0  0  0  0  0  0  0  0  0
  -51.2083    0.5423  -28.2885 O   0  0  0  0  0  0  0  0  0  0  0  0
  -51.0277    2.7667  -27.7608 O   0  0  0  0  0  0  0  0  0  0  0  0
  -52.1458    3.2471  -28.5027 C   0  0  0  0  0  0  0  0  0  0  0  0
  -50.0309    2.6818  -23.2051 H   0  0  0  0  0  0  0  0  0  0  0  0
  -52.5935   -0.6382  -23.6283 H   0  0  0  0  0  0  0  0  0  0  0  0
  -49.7952    2.7655  -25.6749 H   0  0  0  0  0  0  0  0  0  0  0  0
  -52.4957   -0.4502  -25.9896 H   0  0  0  0  0  0  0  0  0  0  0  0
  -53.3084    1.5547  -21.5787 H   0  0  0  0  0  0  0  0  0  0  0  0
  -52.9874    2.6994  -19.3892 H   0  0  0  0  0  0  0  0  0  0  0  0
  -49.3238    0.6693  -19.0187 H   0  0  0  0  0  0  0  0  0  0  0  0
  -51.0374    2.2218  -18.1095 H   0  0  0  0  0  0  0  0  0  0  0  0
  -52.0171    4.2895  -28.7068 H   0  0  0  0  0  0  0  0  0  0  0  0
  -53.0402    3.1029  -27.9333 H   0  0  0  0  0  0  0  0  0  0  0  0
  -52.2195    2.7095  -29.4249 H   0  0  0  0  0  0  0  0  0  0  0  0
  1  7  1  0  0  0  0
  1  3  1  0  0  0  0
  2  1  2  0  0  0  0
  2 18  1  0  0  0  0
  3  5  2  0  0  0  0
  3 19  1  0  0  0  0
  4  2  1  0  0  0  0
  4 20  1  0  0  0  0
  5  6  1  0  0  0  0
  5 21  1  0  0  0  0
  6  4  2  0  0  0  0
  7  8  2  0  0  0  0
  8 10  1  0  0  0  0
  8 22  1  0  0  0  0
  9  7  1  0  0  0  0
  9 12  1  0  0  0  0
 10 13  2  0  0  0  0
 10 23  1  0  0  0  0
 11  9  2  0  0  0  0
 11 24  1  0  0  0  0
 13 11  1  0  0  0  0
 13 25  1  0  0  0  0
 14  6  1  0  0  0  0
 14 16  1  0  0  0  0
 14 15  2  0  0  0  0
 16 17  1  0  0  0  0
 17 26  1  0  0  0  0
 17 27  1  0  0  0  0
 17 28  1  0  0  0  0
M  END
>  <minimizedAffinity>
-7.44730

$$$$

 OpenBabel07052409263D

 31 32  0  0  0  0  0  0  0  0999 V2000
  -51.2951    1.1617  -21.9904 C   0  0  0  0  0  0  0  0  0  0  0  0
  -50.1928    0.7457  -21.3249 C   0  0  0  0  0  0  0  0  0  0  0  0
  -52.4236    1.6756  -21.2050 C   0  0  0  0  0  0  0  0  0  0  0  0
  -50.0967    0.8705  -19.8779 C   0  0  0  0  0  0  0  0  0  0  0  0
  -52.3320    1.8136  -19.8700 C   0  0  0  0  0  0  0  0  0  0  0  0
  -51.0988    1.4520  -19.1923 C   0  0  0  0  0  0  0  0  0  0  0  0
  -51.3024    1.1403  -23.4527 C   0  0  0  0  0  0  0  0  0  0  0  0
  -50.5017    1.9885  -24.1358 C   0  0  0  0  0  0  0  0  0  0  0  0
  -52.1282    0.2075  -24.2239 C   0  0  0  0  0  0  0  0  0  0  0  0
  -50.4821    1.9981  -25.5893 C   0  0  0  0  0  0  0  0  0  0  0  0
  -52.1059    0.2083  -25.5684 C   0  0  0  0  0  0  0  0  0  0  0  0
  -51.2519    1.1432  -26.2903 C   0  0  0  0  0  0  0  0  0  0  0  0
  -51.2816    1.0955  -27.7862 C   0  0  0  0  0  0  0  0  0  0  0  0
  -50.8948    1.7375  -17.7585 C   0  0  0  0  0  0  0  0  0  0  0  0
  -51.2833    2.7440  -17.1888 O   0  0  0  0  0  0  0  0  0  0  0  0
  -50.2011    0.7225  -17.1870 O   0  0  0  0  0  0  0  0  0  0  0  0
  -49.6136    1.1065  -15.9468 C   0  0  0  0  0  0  0  0  0  0  0  0
  -49.4073    0.3331  -21.8520 H   0  0  0  0  0  0  0  0  0  0  0  0
  -53.3002    1.9349  -21.6840 H   0  0  0  0  0  0  0  0  0  0  0  0
  -49.2652    0.5153  -19.3804 H   0  0  0  0  0  0  0  0  0  0  0  0
  -53.1338    2.1746  -19.3298 H   0  0  0  0  0  0  0  0  0  0  0  0
  -49.8936    2.6407  -23.6163 H   0  0  0  0  0  0  0  0  0  0  0  0
  -52.7371   -0.4613  -23.7269 H   0  0  0  0  0  0  0  0  0  0  0  0
  -49.8733    2.6654  -26.0884 H   0  0  0  0  0  0  0  0  0  0  0  0
  -52.6966   -0.4566  -26.0919 H   0  0  0  0  0  0  0  0  0  0  0  0
  -50.6114    1.8309  -28.1799 H   0  0  0  0  0  0  0  0  0  0  0  0
  -52.2746    1.2975  -28.1298 H   0  0  0  0  0  0  0  0  0  0  0  0
  -50.9800    0.1240  -28.1181 H   0  0  0  0  0  0  0  0  0  0  0  0
  -49.0783    0.2772  -15.5338 H   0  0  0  0  0  0  0  0  0  0  0  0
  -50.3821    1.4093  -15.2667 H   0  0  0  0  0  0  0  0  0  0  0  0
  -48.9393    1.9213  -16.1087 H   0  0  0  0  0  0  0  0  0  0  0  0
  1  7  1  0  0  0  0
  1  3  1  0  0  0  0
  2  1  2  0  0  0  0
  2 18  1  0  0  0  0
  3  5  2  0  0  0  0
  3 19  1  0  0  0  0
  4  2  1  0  0  0  0
  4 20  1  0  0  0  0
  5  6  1  0  0  0  0
  5 21  1  0  0  0  0
  6  4  2  0  0  0  0
  7  8  2  0  0  0  0
  8 10  1  0  0  0  0
  8 22  1  0  0  0  0
  9  7  1  0  0  0  0
  9 23  1  0  0  0  0
 10 12  2  0  0  0  0
 10 24  1  0  0  0  0
 11  9  2  0  0  0  0
 11 25  1  0  0  0  0
 12 11  1  0  0  0  0
 12 13  1  0  0  0  0
 13 26  1  0  0  0  0
 13 27  1  0  0  0  0
 13 28  1  0  0  0  0
 14  6  1  0  0  0  0
 14 16  1  0  0  0  0
 14 15  2  0  0  0  0
 16 17  1  0  0  0  0
 17 29  1  0  0  0  0
 17 30  1  0  0  0  0
 17 31  1  0  0  0  0
M  END
>  <minimizedAffinity>
-7.57628

$$$$

 OpenBabel07052409263D

 28 29  0  0  0  0  0  0  0  0999 V2000
  -51.5908    0.7448  -23.4577 C   0  0  0  0  0  0  0  0  0  0  0  0
  -50.7306    0.2448  -22.5404 C   0  0  0  0  0  0  0  0  0  0  0  0
  -52.7523    1.4970  -22.9671 C   0  0  0  0  0  0  0  0  0  0  0  0
  -50.7926    0.6715  -21.1499 C   0  0  0  0  0  0  0  0  0  0  0  0
  -52.8372    1.8668  -21.6764 C   0  0  0  0  0  0  0  0  0  0  0  0
  -51.7700    1.5097  -20.7566 C   0  0  0  0  0  0  0  0  0  0  0  0
  -51.3096    0.5694  -24.8850 C   0  0  0  0  0  0  0  0  0  0  0  0
  -51.5777   -0.6322  -25.4491 C   0  0  0  0  0  0  0  0  0  0  0  0
  -50.8176    1.6373  -25.7733 C   0  0  0  0  0  0  0  0  0  0  0  0
  -51.6826   -0.7742  -26.8912 C   0  0  0  0  0  0  0  0  0  0  0  0
  -50.8352    1.4786  -27.1104 C   0  0  0  0  0  0  0  0  0  0  0  0
  -50.1958    3.0989  -25.0921 Cl  0  0  0  0  0  0  0  0  0  0  0  0
  -51.3245    0.2425  -27.6924 C   0  0  0  0  0  0  0  0  0  0  0  0
  -51.7049    2.0802  -19.3972 C   0  0  0  0  0  0  0  0  0  0  0  0
  -52.4455    2.9533  -18.9757 O   0  0  0  0  0  0  0  0  0  0  0  0
  -50.7096    1.4793  -18.6997 O   0  0  0  0  0  0  0  0  0  0  0  0
  -50.7305    1.8329  -17.3191 C   0  0  0  0  0  0  0  0  0  0  0  0
  -50.0221   -0.4474  -22.8301 H   0  0  0  0  0  0  0  0  0  0  0  0
  -53.5123    1.7449  -23.6198 H   0  0  0  0  0  0  0  0  0  0  0  0
  -50.0926    0.3340  -20.4708 H   0  0  0  0  0  0  0  0  0  0  0  0
  -53.6546    2.4005  -21.3416 H   0  0  0  0  0  0  0  0  0  0  0  0
  -51.7094   -1.4591  -24.8458 H   0  0  0  0  0  0  0  0  0  0  0  0
  -52.0319   -1.6553  -27.2995 H   0  0  0  0  0  0  0  0  0  0  0  0
  -50.4997    2.2383  -27.7231 H   0  0  0  0  0  0  0  0  0  0  0  0
  -51.3970    0.1452  -28.7172 H   0  0  0  0  0  0  0  0  0  0  0  0
  -49.9299    1.3365  -16.8116 H   0  0  0  0  0  0  0  0  0  0  0  0
  -51.6641    1.5358  -16.8889 H   0  0  0  0  0  0  0  0  0  0  0  0
  -50.6132    2.8919  -17.2203 H   0  0  0  0  0  0  0  0  0  0  0  0
  1  7  1  0  0  0  0
  1  3  1  0  0  0  0
  2  1  2  0  0  0  0
  2 18  1  0  0  0  0
  3  5  2  0  0  0  0
  3 19  1  0  0  0  0
  4  2  1  0  0  0  0
  4 20  1  0  0  0  0
  5  6  1  0  0  0  0
  5 21  1  0  0  0  0
  6  4  2  0  0  0  0
  7  8  2  0  0  0  0
  8 10  1  0  0  0  0
  8 22  1  0  0  0  0
  9  7  1  0  0  0  0
  9 12  1  0  0  0  0
 10 13  2  0  0  0  0
 10 23  1  0  0  0  0
 11  9  2  0  0  0  0
 11 24  1  0  0  0  0
 13 11  1  0  0  0  0
 13 25  1  0  0  0  0
 14  6  1  0  0  0  0
 14 16  1  0  0  0  0
 14 15  2  0  0  0  0
 16 17  1  0  0  0  0
 17 26  1  0  0  0  0
 17 27  1  0  0  0  0
 17 28  1  0  0  0  0
M  END
>  <minimizedAffinity>
-7.34078

$$$$

 OpenBabel07052409263D

 28 29  0  0  0  0  0  0  0  0999 V2000
  -50.8389    0.4480  -22.5015 C   0  0  0  0  0  0  0  0  0  0  0  0
  -51.0523   -0.8263  -22.9033 C   0  0  0  0  0  0  0  0  0  0  0  0
  -50.4491    1.4294  -23.5217 C   0  0  0  0  0  0  0  0  0  0  0  0
  -51.1961   -1.1467  -24.3164 C   0  0  0  0  0  0  0  0  0  0  0  0
  -50.5372    1.1310  -24.8306 C   0  0  0  0  0  0  0  0  0  0  0  0
  -51.0134   -0.1810  -25.2365 C   0  0  0  0  0  0  0  0  0  0  0  0
  -51.0640    0.8127  -21.1005 C   0  0  0  0  0  0  0  0  0  0  0  0
  -50.2020    0.3407  -20.1689 C   0  0  0  0  0  0  0  0  0  0  0  0
  -52.1300    1.7197  -20.6381 C   0  0  0  0  0  0  0  0  0  0  0  0
  -50.1380    0.9327  -18.8426 C   0  0  0  0  0  0  0  0  0  0  0  0
  -52.1190    2.2120  -19.3848 C   0  0  0  0  0  0  0  0  0  0  0  0
  -53.4167    2.1425  -21.7118 Cl  0  0  0  0  0  0  0  0  0  0  0  0
  -51.0621    1.8328  -18.4677 C   0  0  0  0  0  0  0  0  0  0  0  0
  -51.0331    2.5446  -16.9023 Cl  0  0  0  0  0  0  0  0  0  0  0  0
  -51.3408   -0.4778  -26.6445 C   0  0  0  0  0  0  0  0  0  0  0  0
  -51.0951   -1.5330  -27.2055 O   0  0  0  0  0  0  0  0  0  0  0  0
  -51.9581    0.5930  -27.2020 O   0  0  0  0  0  0  0  0  0  0  0  0
  -51.1606    1.2107  -28.2090 C   0  0  0  0  0  0  0  0  0  0  0  0
  -51.1138   -1.5795  -22.2005 H   0  0  0  0  0  0  0  0  0  0  0  0
  -50.1040    2.3577  -23.2317 H   0  0  0  0  0  0  0  0  0  0  0  0
  -51.4362   -2.1064  -24.6103 H   0  0  0  0  0  0  0  0  0  0  0  0
  -50.2685    1.8289  -25.5417 H   0  0  0  0  0  0  0  0  0  0  0  0
  -49.5819   -0.4502  -20.4036 H   0  0  0  0  0  0  0  0  0  0  0  0
  -49.3848    0.6622  -18.1910 H   0  0  0  0  0  0  0  0  0  0  0  0
  -52.8622    2.8586  -19.0774 H   0  0  0  0  0  0  0  0  0  0  0  0
  -51.6876    2.0473  -28.6180 H   0  0  0  0  0  0  0  0  0  0  0  0
  -50.9561    0.5036  -28.9856 H   0  0  0  0  0  0  0  0  0  0  0  0
  -50.2394    1.5449  -27.7793 H   0  0  0  0  0  0  0  0  0  0  0  0
  1  7  1  0  0  0  0
  1  3  1  0  0  0  0
  2  1  2  0  0  0  0
  2 19  1  0  0  0  0
  3  5  2  0  0  0  0
  3 20  1  0  0  0  0
  4  2  1  0  0  0  0
  4 21  1  0  0  0  0
  5  6  1  0  0  0  0
  5 22  1  0  0  0  0
  6  4  2  0  0  0  0
  7  8  2  0  0  0  0
  8 10  1  0  0  0  0
  8 23  1  0  0  0  0
  9  7  1  0  0  0  0
  9 12  1  0  0  0  0
 10 13  2  0  0  0  0
 10 24  1  0  0  0  0
 11  9  2  0  0  0  0
 11 25  1  0  0  0  0
 13 11  1  0  0  0  0
 13 14  1  0  0  0  0
 15  6  1  0  0  0  0
 15 17  1  0  0  0  0
 15 16  2  0  0  0  0
 17 18  1  0  0  0  0
 18 26  1  0  0  0  0
 18 27  1  0  0  0  0
 18 28  1  0  0  0  0
M  END
>  <minimizedAffinity>
-7.81369

$$$$

 OpenBabel07052409263D

 28 29  0  0  0  0  0  0  0  0999 V2000
  -51.2339    0.8071  -22.7039 C   0  0  0  0  0  0  0  0  0  0  0  0
  -50.1358    0.3437  -23.3445 C   0  0  0  0  0  0  0  0  0  0  0  0
  -52.4731    0.9556  -23.4764 C   0  0  0  0  0  0  0  0  0  0  0  0
  -50.2016   -0.0850  -24.7341 C   0  0  0  0  0  0  0  0  0  0  0  0
  -52.5437    0.5474  -24.7562 C   0  0  0  0  0  0  0  0  0  0  0  0
  -51.3789   -0.0505  -25.3860 C   0  0  0  0  0  0  0  0  0  0  0  0
  -51.1483    1.1480  -21.2844 C   0  0  0  0  0  0  0  0  0  0  0  0
  -52.1437    1.8609  -20.7092 C   0  0  0  0  0  0  0  0  0  0  0  0
  -49.9993    0.7736  -20.4522 C   0  0  0  0  0  0  0  0  0  0  0  0
  -52.0880    2.2283  -19.3025 C   0  0  0  0  0  0  0  0  0  0  0  0
  -49.9434    1.1170  -19.1526 C   0  0  0  0  0  0  0  0  0  0  0  0
  -51.0298    1.8701  -18.5560 C   0  0  0  0  0  0  0  0  0  0  0  0
  -50.9272    2.2869  -16.8902 Cl  0  0  0  0  0  0  0  0  0  0  0  0
  -51.4545   -0.6528  -26.7316 C   0  0  0  0  0  0  0  0  0  0  0  0
  -52.0733   -1.6685  -27.0036 O   0  0  0  0  0  0  0  0  0  0  0  0
  -50.7218    0.0856  -27.6010 O   0  0  0  0  0  0  0  0  0  0  0  0
  -51.3171    1.3538  -27.8625 C   0  0  0  0  0  0  0  0  0  0  0  0
  -49.2371    0.2934  -22.8398 H   0  0  0  0  0  0  0  0  0  0  0  0
  -53.3022    1.3793  -23.0313 H   0  0  0  0  0  0  0  0  0  0  0  0
  -49.3506   -0.4135  -25.2167 H   0  0  0  0  0  0  0  0  0  0  0  0
  -53.4210    0.6584  -25.2882 H   0  0  0  0  0  0  0  0  0  0  0  0
  -52.9557    2.1488  -21.2773 H   0  0  0  0  0  0  0  0  0  0  0  0
  -49.2221    0.2386  -20.8702 H   0  0  0  0  0  0  0  0  0  0  0  0
  -52.8612    2.7640  -18.8781 H   0  0  0  0  0  0  0  0  0  0  0  0
  -49.1284    0.8449  -18.5809 H   0  0  0  0  0  0  0  0  0  0  0  0
  -50.7062    1.8994  -28.5510 H   0  0  0  0  0  0  0  0  0  0  0  0
  -51.4021    1.9032  -26.9483 H   0  0  0  0  0  0  0  0  0  0  0  0
  -52.2899    1.2109  -28.2845 H   0  0  0  0  0  0  0  0  0  0  0  0
  1  7  1  0  0  0  0
  1  3  1  0  0  0  0
  2  1  2  0  0  0  0
  2 18  1  0  0  0  0
  3  5  2  0  0  0  0
  3 19  1  0  0  0  0
  4  2  1  0  0  0  0
  4 20  1  0  0  0  0
  5  6  1  0  0  0  0
  5 21  1  0  0  0  0
  6  4  2  0  0  0  0
  7  8  2  0  0  0  0
  8 10  1  0  0  0  0
  8 22  1  0  0  0  0
  9  7  1  0  0  0  0
  9 23  1  0  0  0  0
 10 12  2  0  0  0  0
 10 24  1  0  0  0  0
 11  9  2  0  0  0  0
 11 25  1  0  0  0  0
 12 11  1  0  0  0  0
 12 13  1  0  0  0  0
 14  6  1  0  0  0  0
 14 16  1  0  0  0  0
 14 15  2  0  0  0  0
 16 17  1  0  0  0  0
 17 26  1  0  0  0  0
 17 27  1  0  0  0  0
 17 28  1  0  0  0  0
M  END
>  <minimizedAffinity>
-7.56656

$$$$

 OpenBabel07052409263D

 29 30  0  0  0  0  0  0  0  0999 V2000
  -51.2568    1.2853  -22.5666 C   0  0  0  0  0  0  0  0  0  0  0  0
  -52.4435    0.7985  -22.9965 C   0  0  0  0  0  0  0  0  0  0  0  0
  -50.3956    1.9502  -23.5525 C   0  0  0  0  0  0  0  0  0  0  0  0
  -52.7028    0.6260  -24.4186 C   0  0  0  0  0  0  0  0  0  0  0  0
  -50.6534    1.8446  -24.8688 C   0  0  0  0  0  0  0  0  0  0  0  0
  -51.8058    1.0791  -25.3150 C   0  0  0  0  0  0  0  0  0  0  0  0
  -50.8094    0.9910  -21.2030 C   0  0  0  0  0  0  0  0  0  0  0  0
  -49.8790    0.0222  -21.0381 C   0  0  0  0  0  0  0  0  0  0  0  0
  -51.2823    1.7021  -19.9974 C   0  0  0  0  0  0  0  0  0  0  0  0
  -49.2013   -0.1636  -19.7655 C   0  0  0  0  0  0  0  0  0  0  0  0
  -50.6976    1.4881  -18.7989 C   0  0  0  0  0  0  0  0  0  0  0  0
  -52.3376    2.5830  -20.1465 O   0  0  0  0  0  0  0  0  0  0  0  0
  -47.8124   -1.4041  -19.6867 Br  0  0  0  0  0  0  0  0  0  0  0  0
  -49.5986    0.5397  -18.6909 C   0  0  0  0  0  0  0  0  0  0  0  0
  -51.2249    2.3494  -17.2251 Br  0  0  0  0  0  0  0  0  0  0  0  0
  -52.0025    0.7462  -26.7396 C   0  0  0  0  0  0  0  0  0  0  0  0
  -51.7659    1.5037  -27.6659 O   0  0  0  0  0  0  0  0  0  0  0  0
  -52.4899   -0.5143  -26.8435 O   0  0  0  0  0  0  0  0  0  0  0  0
  -51.4635   -1.4746  -27.0826 C   0  0  0  0  0  0  0  0  0  0  0  0
  -53.1718    0.5471  -22.3099 H   0  0  0  0  0  0  0  0  0  0  0  0
  -49.5852    2.5035  -23.2329 H   0  0  0  0  0  0  0  0  0  0  0  0
  -53.5669    0.1603  -24.7371 H   0  0  0  0  0  0  0  0  0  0  0  0
  -50.0370    2.3041  -25.5572 H   0  0  0  0  0  0  0  0  0  0  0  0
  -49.6462   -0.5963  -21.8307 H   0  0  0  0  0  0  0  0  0  0  0  0
  -52.7245    2.7122  -20.9901 H   0  0  0  0  0  0  0  0  0  0  0  0
  -49.1222    0.4066  -17.7852 H   0  0  0  0  0  0  0  0  0  0  0  0
  -51.8976   -2.4498  -27.1565 H   0  0  0  0  0  0  0  0  0  0  0  0
  -50.7627   -1.4564  -26.2742 H   0  0  0  0  0  0  0  0  0  0  0  0
  -50.9598   -1.2383  -27.9966 H   0  0  0  0  0  0  0  0  0  0  0  0
  1  7  1  0  0  0  0
  1  3  1  0  0  0  0
  2  1  2  0  0  0  0
  2 20  1  0  0  0  0
  3  5  2  0  0  0  0
  3 21  1  0  0  0  0
  4  2  1  0  0  0  0
  4 22  1  0  0  0  0
  5  6  1  0  0  0  0
  5 23  1  0  0  0  0
  6  4  2  0  0  0  0
  7  8  2  0  0  0  0
  8 10  1  0  0  0  0
  8 24  1  0  0  0  0
  9  7  1  0  0  0  0
  9 12  1  0  0  0  0
 10 13  1  0  0  0  0
 10 14  2  0  0  0  0
 11  9  2  0  0  0  0
 11 15  1  0  0  0  0
 12 25  1  0  0  0  0
 14 11  1  0  0  0  0
 14 26  1  0  0  0  0
 16  6  1  0  0  0  0
 16 18  1  0  0  0  0
 16 17  2  0  0  0  0
 18 19  1  0  0  0  0
 19 27  1  0  0  0  0
 19 28  1  0  0  0  0
 19 29  1  0  0  0  0
M  END
>  <minimizedAffinity>
-7.24031

$$$$

 OpenBabel07052409263D

 28 29  0  0  0  0  0  0  0  0999 V2000
  -50.9717    0.9373  -22.3610 C   0  0  0  0  0  0  0  0  0  0  0  0
  -49.9230    0.3839  -23.0126 C   0  0  0  0  0  0  0  0  0  0  0  0
  -52.2043    1.1829  -23.1194 C   0  0  0  0  0  0  0  0  0  0  0  0
  -50.0384   -0.0381  -24.4005 C   0  0  0  0  0  0  0  0  0  0  0  0
  -52.3190    0.7898  -24.4006 C   0  0  0  0  0  0  0  0  0  0  0  0
  -51.2091    0.1115  -25.0479 C   0  0  0  0  0  0  0  0  0  0  0  0
  -50.8625    1.2162  -20.9297 C   0  0  0  0  0  0  0  0  0  0  0  0
  -51.8109    1.9650  -20.3228 C   0  0  0  0  0  0  0  0  0  0  0  0
  -49.7791    0.6776  -20.1019 C   0  0  0  0  0  0  0  0  0  0  0  0
  -51.7729    2.2068  -18.8890 C   0  0  0  0  0  0  0  0  0  0  0  0
  -49.7386    0.9062  -18.7767 C   0  0  0  0  0  0  0  0  0  0  0  0
  -50.7772    1.6996  -18.1396 C   0  0  0  0  0  0  0  0  0  0  0  0
  -50.6703    1.9740  -16.3001 Br  0  0  0  0  0  0  0  0  0  0  0  0
  -51.3257   -0.4078  -26.4245 C   0  0  0  0  0  0  0  0  0  0  0  0
  -50.8700   -1.4736  -26.8049 O   0  0  0  0  0  0  0  0  0  0  0  0
  -52.0195    0.4754  -27.1839 O   0  0  0  0  0  0  0  0  0  0  0  0
  -51.1631    1.3834  -27.8722 C   0  0  0  0  0  0  0  0  0  0  0  0
  -49.0264    0.2590  -22.5171 H   0  0  0  0  0  0  0  0  0  0  0  0
  -52.9947    1.6644  -22.6627 H   0  0  0  0  0  0  0  0  0  0  0  0
  -49.2264   -0.4502  -24.8862 H   0  0  0  0  0  0  0  0  0  0  0  0
  -53.1916    0.9692  -24.9216 H   0  0  0  0  0  0  0  0  0  0  0  0
  -52.5741    2.3715  -20.8861 H   0  0  0  0  0  0  0  0  0  0  0  0
  -49.0355    0.1140  -20.5428 H   0  0  0  0  0  0  0  0  0  0  0  0
  -52.5139    2.7706  -18.4440 H   0  0  0  0  0  0  0  0  0  0  0  0
  -48.9682    0.5173  -18.2108 H   0  0  0  0  0  0  0  0  0  0  0  0
  -51.7539    2.0581  -28.4559 H   0  0  0  0  0  0  0  0  0  0  0  0
  -50.5064    0.8361  -28.5157 H   0  0  0  0  0  0  0  0  0  0  0  0
  -50.5861    1.9377  -27.1617 H   0  0  0  0  0  0  0  0  0  0  0  0
  1  7  1  0  0  0  0
  1  3  1  0  0  0  0
  2  1  2  0  0  0  0
  2 18  1  0  0  0  0
  3  5  2  0  0  0  0
  3 19  1  0  0  0  0
  4  2  1  0  0  0  0
  4 20  1  0  0  0  0
  5  6  1  0  0  0  0
  5 21  1  0  0  0  0
  6  4  2  0  0  0  0
  7  8  2  0  0  0  0
  8 10  1  0  0  0  0
  8 22  1  0  0  0  0
  9  7  1  0  0  0  0
  9 23  1  0  0  0  0
 10 12  2  0  0  0  0
 10 24  1  0  0  0  0
 11  9  2  0  0  0  0
 11 25  1  0  0  0  0
 12 11  1  0  0  0  0
 12 13  1  0  0  0  0
 14  6  1  0  0  0  0
 14 16  1  0  0  0  0
 14 15  2  0  0  0  0
 16 17  1  0  0  0  0
 17 26  1  0  0  0  0
 17 27  1  0  0  0  0
 17 28  1  0  0  0  0
M  END
>  <minimizedAffinity>
-7.41885

$$$$

 OpenBabel07052409263D

 29 30  0  0  0  0  0  0  0  0999 V2000
  -51.5914    1.2720  -23.2860 C   0  0  0  0  0  0  0  0  0  0  0  0
  -52.4470    0.5832  -24.0758 C   0  0  0  0  0  0  0  0  0  0  0  0
  -50.5868    2.1222  -23.9365 C   0  0  0  0  0  0  0  0  0  0  0  0
  -52.2437    0.5137  -25.5147 C   0  0  0  0  0  0  0  0  0  0  0  0
  -50.4471    2.1271  -25.2744 C   0  0  0  0  0  0  0  0  0  0  0  0
  -51.3133    1.2957  -26.0936 C   0  0  0  0  0  0  0  0  0  0  0  0
  -51.6194    1.0596  -21.8368 C   0  0  0  0  0  0  0  0  0  0  0  0
  -50.7410    0.1787  -21.3017 C   0  0  0  0  0  0  0  0  0  0  0  0
  -52.5237    1.7642  -20.9079 C   0  0  0  0  0  0  0  0  0  0  0  0
  -50.5649    0.0688  -19.8631 C   0  0  0  0  0  0  0  0  0  0  0  0
  -52.3925    1.6232  -19.5784 C   0  0  0  0  0  0  0  0  0  0  0  0
  -53.5138    2.5702  -21.4285 O   0  0  0  0  0  0  0  0  0  0  0  0
  -51.3610    0.7629  -19.0334 C   0  0  0  0  0  0  0  0  0  0  0  0
  -51.1611    1.2417  -27.5611 C   0  0  0  0  0  0  0  0  0  0  0  0
  -51.2219    0.2221  -28.2282 O   0  0  0  0  0  0  0  0  0  0  0  0
  -50.9264    2.4896  -28.0355 O   0  0  0  0  0  0  0  0  0  0  0  0
  -52.1223    3.1377  -28.4621 C   0  0  0  0  0  0  0  0  0  0  0  0
  -53.2547    0.1006  -23.6519 H   0  0  0  0  0  0  0  0  0  0  0  0
  -49.9793    2.7245  -23.3593 H   0  0  0  0  0  0  0  0  0  0  0  0
  -52.8094   -0.1313  -26.0882 H   0  0  0  0  0  0  0  0  0  0  0  0
  -49.7274    2.7192  -25.7177 H   0  0  0  0  0  0  0  0  0  0  0  0
  -50.1861   -0.4261  -21.9272 H   0  0  0  0  0  0  0  0  0  0  0  0
  -49.8278   -0.5429  -19.4790 H   0  0  0  0  0  0  0  0  0  0  0  0
  -53.0286    2.1294  -18.9426 H   0  0  0  0  0  0  0  0  0  0  0  0
  -53.6010    2.6651  -22.3566 H   0  0  0  0  0  0  0  0  0  0  0  0
  -51.2388    0.6840  -18.0117 H   0  0  0  0  0  0  0  0  0  0  0  0
  -51.8873    4.1157  -28.8269 H   0  0  0  0  0  0  0  0  0  0  0  0
  -52.7985    3.2179  -27.6367 H   0  0  0  0  0  0  0  0  0  0  0  0
  -52.5788    2.5659  -29.2429 H   0  0  0  0  0  0  0  0  0  0  0  0
  1  7  1  0  0  0  0
  1  3  1  0  0  0  0
  2  1  2  0  0  0  0
  2 18  1  0  0  0  0
  3  5  2  0  0  0  0
  3 19  1  0  0  0  0
  4  2  1  0  0  0  0
  4 20  1  0  0  0  0
  5  6  1  0  0  0  0
  5 21  1  0  0  0  0
  6  4  2  0  0  0  0
  7  8  2  0  0  0  0
  8 10  1  0  0  0  0
  8 22  1  0  0  0  0
  9  7  1  0  0  0  0
  9 12  1  0  0  0  0
 10 13  2  0  0  0  0
 10 23  1  0  0  0  0
 11  9  2  0  0  0  0
 11 24  1  0  0  0  0
 12 25  1  0  0  0  0
 13 11  1  0  0  0  0
 13 26  1  0  0  0  0
 14  6  1  0  0  0  0
 14 16  1  0  0  0  0
 14 15  2  0  0  0  0
 16 17  1  0  0  0  0
 17 27  1  0  0  0  0
 17 28  1  0  0  0  0
 17 29  1  0  0  0  0
M  END
>  <minimizedAffinity>
-7.43574

$$$$

 OpenBabel07052409263D

 32 33  0  0  0  0  0  0  0  0999 V2000
  -51.4473    1.3478  -23.0564 C   0  0  0  0  0  0  0  0  0  0  0  0
  -52.4335    0.6962  -23.7144 C   0  0  0  0  0  0  0  0  0  0  0  0
  -50.3513    1.9190  -23.8488 C   0  0  0  0  0  0  0  0  0  0  0  0
  -52.3097    0.3881  -25.1308 C   0  0  0  0  0  0  0  0  0  0  0  0
  -50.2758    1.7106  -25.1757 C   0  0  0  0  0  0  0  0  0  0  0  0
  -51.3014    0.9257  -25.8425 C   0  0  0  0  0  0  0  0  0  0  0  0
  -51.4477    1.3645  -21.5918 C   0  0  0  0  0  0  0  0  0  0  0  0
  -50.4644    0.6990  -20.9424 C   0  0  0  0  0  0  0  0  0  0  0  0
  -52.4166    2.1059  -20.7660 C   0  0  0  0  0  0  0  0  0  0  0  0
  -50.2144    0.9195  -19.5276 C   0  0  0  0  0  0  0  0  0  0  0  0
  -52.2261    2.2533  -19.4443 C   0  0  0  0  0  0  0  0  0  0  0  0
  -53.5309    2.6440  -21.3742 O   0  0  0  0  0  0  0  0  0  0  0  0
  -51.0609    1.6673  -18.7938 C   0  0  0  0  0  0  0  0  0  0  0  0
  -50.8790    1.9309  -17.3318 C   0  0  0  0  0  0  0  0  0  0  0  0
  -51.2452    0.6634  -27.2942 C   0  0  0  0  0  0  0  0  0  0  0  0
  -51.5248   -0.4021  -27.8184 O   0  0  0  0  0  0  0  0  0  0  0  0
  -50.8198    1.7781  -27.9376 O   0  0  0  0  0  0  0  0  0  0  0  0
  -51.8874    2.6818  -28.2117 C   0  0  0  0  0  0  0  0  0  0  0  0
  -53.2852    0.4138  -23.2047 H   0  0  0  0  0  0  0  0  0  0  0  0
  -49.6286    2.4884  -23.3813 H   0  0  0  0  0  0  0  0  0  0  0  0
  -52.9907   -0.2388  -25.5872 H   0  0  0  0  0  0  0  0  0  0  0  0
  -49.4924    2.1067  -25.7183 H   0  0  0  0  0  0  0  0  0  0  0  0
  -49.8818    0.0231  -21.4608 H   0  0  0  0  0  0  0  0  0  0  0  0
  -49.3830    0.5004  -19.0825 H   0  0  0  0  0  0  0  0  0  0  0  0
  -52.9105    2.7859  -18.8849 H   0  0  0  0  0  0  0  0  0  0  0  0
  -53.6585    2.5380  -22.2964 H   0  0  0  0  0  0  0  0  0  0  0  0
  -49.9900    1.4436  -16.9894 H   0  0  0  0  0  0  0  0  0  0  0  0
  -51.7229    1.5528  -16.7935 H   0  0  0  0  0  0  0  0  0  0  0  0
  -50.7940    2.9848  -17.1673 H   0  0  0  0  0  0  0  0  0  0  0  0
  -51.5045    3.5430  -28.7183 H   0  0  0  0  0  0  0  0  0  0  0  0
  -52.3448    2.9828  -27.2924 H   0  0  0  0  0  0  0  0  0  0  0  0
  -52.6143    2.1980  -28.8302 H   0  0  0  0  0  0  0  0  0  0  0  0
  1  7  1  0  0  0  0
  1  3  1  0  0  0  0
  2  1  2  0  0  0  0
  2 19  1  0  0  0  0
  3  5  2  0  0  0  0
  3 20  1  0  0  0  0
  4  2  1  0  0  0  0
  4 21  1  0  0  0  0
  5  6  1  0  0  0  0
  5 22  1  0  0  0  0
  6  4  2  0  0  0  0
  7  8  2  0  0  0  0
  8 10  1  0  0  0  0
  8 23  1  0  0  0  0
  9  7  1  0  0  0  0
  9 12  1  0  0  0  0
 10 13  2  0  0  0  0
 10 24  1  0  0  0  0
 11  9  2  0  0  0  0
 11 25  1  0  0  0  0
 12 26  1  0  0  0  0
 13 11  1  0  0  0  0
 13 14  1  0  0  0  0
 14 27  1  0  0  0  0
 14 28  1  0  0  0  0
 14 29  1  0  0  0  0
 15  6  1  0  0  0  0
 15 17  1  0  0  0  0
 15 16  2  0  0  0  0
 17 18  1  0  0  0  0
 18 30  1  0  0  0  0
 18 31  1  0  0  0  0
 18 32  1  0  0  0  0
M  END
>  <minimizedAffinity>
-8.02182

$$$$

 OpenBabel07052409263D

 28 29  0  0  0  0  0  0  0  0999 V2000
  -51.4024    0.9356  -23.2637 C   0  0  0  0  0  0  0  0  0  0  0  0
  -52.4719    1.4480  -22.6119 C   0  0  0  0  0  0  0  0  0  0  0  0
  -50.3487    0.3059  -22.4588 C   0  0  0  0  0  0  0  0  0  0  0  0
  -52.4462    1.6319  -21.1670 C   0  0  0  0  0  0  0  0  0  0  0  0
  -50.3305    0.4453  -21.1208 C   0  0  0  0  0  0  0  0  0  0  0  0
  -51.3724    1.2193  -20.4669 C   0  0  0  0  0  0  0  0  0  0  0  0
  -51.3073    1.0792  -24.7155 C   0  0  0  0  0  0  0  0  0  0  0  0
  -51.9008    0.1620  -25.5150 C   0  0  0  0  0  0  0  0  0  0  0  0
  -50.6345    2.2076  -25.3631 C   0  0  0  0  0  0  0  0  0  0  0  0
  -51.9051    0.3163  -26.9618 C   0  0  0  0  0  0  0  0  0  0  0  0
  -50.6249    2.3495  -26.6982 C   0  0  0  0  0  0  0  0  0  0  0  0
  -50.0111    3.1184  -24.5867 F   0  0  0  0  0  0  0  0  0  0  0  0
  -51.2917    1.3677  -27.5319 C   0  0  0  0  0  0  0  0  0  0  0  0
  -51.2554    1.6323  -19.0549 C   0  0  0  0  0  0  0  0  0  0  0  0
  -51.6564    2.6943  -18.6074 O   0  0  0  0  0  0  0  0  0  0  0  0
  -50.6539    0.6490  -18.3410 O   0  0  0  0  0  0  0  0  0  0  0  0
  -49.7815    1.1695  -17.3414 C   0  0  0  0  0  0  0  0  0  0  0  0
  -53.3156    1.7116  -23.1446 H   0  0  0  0  0  0  0  0  0  0  0  0
  -49.6140   -0.2497  -22.9242 H   0  0  0  0  0  0  0  0  0  0  0  0
  -53.2438    2.0744  -20.6843 H   0  0  0  0  0  0  0  0  0  0  0  0
  -49.5820    0.0057  -20.5627 H   0  0  0  0  0  0  0  0  0  0  0  0
  -52.3579   -0.6605  -25.0912 H   0  0  0  0  0  0  0  0  0  0  0  0
  -52.3807   -0.3838  -27.5522 H   0  0  0  0  0  0  0  0  0  0  0  0
  -50.1446    3.1545  -27.1298 H   0  0  0  0  0  0  0  0  0  0  0  0
  -51.2952    1.4759  -28.5582 H   0  0  0  0  0  0  0  0  0  0  0  0
  -49.3308    0.3607  -16.8051 H   0  0  0  0  0  0  0  0  0  0  0  0
  -50.3403    1.7798  -16.6630 H   0  0  0  0  0  0  0  0  0  0  0  0
  -49.0185    1.7588  -17.8056 H   0  0  0  0  0  0  0  0  0  0  0  0
  1  7  1  0  0  0  0
  1  3  1  0  0  0  0
  2  1  2  0  0  0  0
  2 18  1  0  0  0  0
  3  5  2  0  0  0  0
  3 19  1  0  0  0  0
  4  2  1  0  0  0  0
  4 20  1  0  0  0  0
  5  6  1  0  0  0  0
  5 21  1  0  0  0  0
  6  4  2  0  0  0  0
  7  8  2  0  0  0  0
  8 10  1  0  0  0  0
  8 22  1  0  0  0  0
  9  7  1  0  0  0  0
  9 12  1  0  0  0  0
 10 13  2  0  0  0  0
 10 23  1  0  0  0  0
 11  9  2  0  0  0  0
 11 24  1  0  0  0  0
 13 11  1  0  0  0  0
 13 25  1  0  0  0  0
 14  6  1  0  0  0  0
 14 16  1  0  0  0  0
 14 15  2  0  0  0  0
 16 17  1  0  0  0  0
 17 26  1  0  0  0  0
 17 27  1  0  0  0  0
 17 28  1  0  0  0  0
M  END
>  <minimizedAffinity>
-7.34686

$$$$

 OpenBabel07052409263D

 28 29  0  0  0  0  0  0  0  0999 V2000
  -51.3664    1.1864  -22.2104 C   0  0  0  0  0  0  0  0  0  0  0  0
  -50.2491    0.7626  -21.5761 C   0  0  0  0  0  0  0  0  0  0  0  0
  -52.4711    1.7020  -21.3930 C   0  0  0  0  0  0  0  0  0  0  0  0
  -50.1053    0.9004  -20.1346 C   0  0  0  0  0  0  0  0  0  0  0  0
  -52.3437    1.8338  -20.0603 C   0  0  0  0  0  0  0  0  0  0  0  0
  -51.0960    1.4608  -19.4160 C   0  0  0  0  0  0  0  0  0  0  0  0
  -51.4127    1.1707  -23.6722 C   0  0  0  0  0  0  0  0  0  0  0  0
  -50.4909    1.8700  -24.3749 C   0  0  0  0  0  0  0  0  0  0  0  0
  -52.4103    0.3934  -24.4205 C   0  0  0  0  0  0  0  0  0  0  0  0
  -50.4938    1.8619  -25.8292 C   0  0  0  0  0  0  0  0  0  0  0  0
  -52.4111    0.3840  -25.7656 C   0  0  0  0  0  0  0  0  0  0  0  0
  -51.4184    1.1470  -26.4866 C   0  0  0  0  0  0  0  0  0  0  0  0
  -51.4437    1.1225  -27.8331 F   0  0  0  0  0  0  0  0  0  0  0  0
  -50.8911    1.6604  -17.9681 C   0  0  0  0  0  0  0  0  0  0  0  0
  -51.2786    2.6320  -17.3400 O   0  0  0  0  0  0  0  0  0  0  0  0
  -50.2210    0.5990  -17.4557 O   0  0  0  0  0  0  0  0  0  0  0  0
  -49.3247    0.9790  -16.4145 C   0  0  0  0  0  0  0  0  0  0  0  0
  -49.4862    0.3345  -22.1236 H   0  0  0  0  0  0  0  0  0  0  0  0
  -53.3588    1.9674  -21.8475 H   0  0  0  0  0  0  0  0  0  0  0  0
  -49.2476    0.5700  -19.6653 H   0  0  0  0  0  0  0  0  0  0  0  0
  -53.1287    2.1982  -19.4981 H   0  0  0  0  0  0  0  0  0  0  0  0
  -49.7754    2.4170  -23.8711 H   0  0  0  0  0  0  0  0  0  0  0  0
  -53.1198   -0.1526  -23.9072 H   0  0  0  0  0  0  0  0  0  0  0  0
  -49.7881    2.4034  -26.3524 H   0  0  0  0  0  0  0  0  0  0  0  0
  -53.1172   -0.1654  -26.2800 H   0  0  0  0  0  0  0  0  0  0  0  0
  -48.8209    0.1111  -16.0431 H   0  0  0  0  0  0  0  0  0  0  0  0
  -49.8749    1.4391  -15.6205 H   0  0  0  0  0  0  0  0  0  0  0  0
  -48.6054    1.6720  -16.7983 H   0  0  0  0  0  0  0  0  0  0  0  0
  1  7  1  0  0  0  0
  1  3  1  0  0  0  0
  2  1  2  0  0  0  0
  2 18  1  0  0  0  0
  3  5  2  0  0  0  0
  3 19  1  0  0  0  0
  4  2  1  0  0  0  0
  4 20  1  0  0  0  0
  5  6  1  0  0  0  0
  5 21  1  0  0  0  0
  6  4  2  0  0  0  0
  7  8  2  0  0  0  0
  8 10  1  0  0  0  0
  8 22  1  0  0  0  0
  9  7  1  0  0  0  0
  9 23  1  0  0  0  0
 10 12  2  0  0  0  0
 10 24  1  0  0  0  0
 11  9  2  0  0  0  0
 11 25  1  0  0  0  0
 12 11  1  0  0  0  0
 12 13  1  0  0  0  0
 14  6  1  0  0  0  0
 14 16  1  0  0  0  0
 14 15  2  0  0  0  0
 16 17  1  0  0  0  0
 17 26  1  0  0  0  0
 17 27  1  0  0  0  0
 17 28  1  0  0  0  0
M  END
>  <minimizedAffinity>
-7.40552

$$$$

 OpenBabel07052409263D

 28 29  0  0  0  0  0  0  0  0999 V2000
  -51.2086    1.3785  -20.7478 C   0  0  0  0  0  0  0  0  0  0  0  0
  -50.4297    0.8496  -21.7197 C   0  0  0  0  0  0  0  0  0  0  0  0
  -52.5469    1.8547  -21.1175 C   0  0  0  0  0  0  0  0  0  0  0  0
  -50.9284    0.6876  -23.0776 C   0  0  0  0  0  0  0  0  0  0  0  0
  -53.0207    1.6881  -22.3655 C   0  0  0  0  0  0  0  0  0  0  0  0
  -52.1997    1.0252  -23.3641 C   0  0  0  0  0  0  0  0  0  0  0  0
  -50.7202    1.4033  -19.3695 C   0  0  0  0  0  0  0  0  0  0  0  0
  -51.4011    2.1036  -18.4337 C   0  0  0  0  0  0  0  0  0  0  0  0
  -49.5251    0.6673  -18.9427 C   0  0  0  0  0  0  0  0  0  0  0  0
  -50.9502    2.1459  -17.0525 C   0  0  0  0  0  0  0  0  0  0  0  0
  -49.1109    0.7005  -17.6639 C   0  0  0  0  0  0  0  0  0  0  0  0
  -49.8490    1.4711  -16.6823 C   0  0  0  0  0  0  0  0  0  0  0  0
  -52.7356    0.6756  -24.6943 C   0  0  0  0  0  0  0  0  0  0  0  0
  -53.8831    0.3206  -24.9092 O   0  0  0  0  0  0  0  0  0  0  0  0
  -51.7567    0.7950  -25.6246 O   0  0  0  0  0  0  0  0  0  0  0  0
  -52.0411    0.0435  -26.8016 C   0  0  0  0  0  0  0  0  0  0  0  0
  -49.4662    0.5563  -21.4945 H   0  0  0  0  0  0  0  0  0  0  0  0
  -53.1330    2.3242  -20.4096 H   0  0  0  0  0  0  0  0  0  0  0  0
  -50.3110    0.3161  -23.8164 H   0  0  0  0  0  0  0  0  0  0  0  0
  -53.9628    2.0295  -22.6123 H   0  0  0  0  0  0  0  0  0  0  0  0
  -52.2547    2.6163  -18.7048 H   0  0  0  0  0  0  0  0  0  0  0  0
  -48.9941    0.1156  -19.6346 H   0  0  0  0  0  0  0  0  0  0  0  0
  -51.4767    2.6951  -16.3552 H   0  0  0  0  0  0  0  0  0  0  0  0
  -48.2675    0.1774  -17.3810 H   0  0  0  0  0  0  0  0  0  0  0  0
  -49.5292    1.5012  -15.7015 H   0  0  0  0  0  0  0  0  0  0  0  0
  -51.2444    0.1673  -27.5050 H   0  0  0  0  0  0  0  0  0  0  0  0
  -52.9560    0.3909  -27.2342 H   0  0  0  0  0  0  0  0  0  0  0  0
  -52.1364   -0.9919  -26.5493 H   0  0  0  0  0  0  0  0  0  0  0  0
  1  7  1  0  0  0  0
  1  3  1  0  0  0  0
  2  1  2  0  0  0  0
  2 17  1  0  0  0  0
  3  5  2  0  0  0  0
  3 18  1  0  0  0  0
  4  2  1  0  0  0  0
  4 19  1  0  0  0  0
  5  6  1  0  0  0  0
  5 20  1  0  0  0  0
  6  4  2  0  0  0  0
  7  8  2  0  0  0  0
  8 10  1  0  0  0  0
  8 21  1  0  0  0  0
  9  7  1  0  0  0  0
  9 22  1  0  0  0  0
 10 12  2  0  0  0  0
 10 23  1  0  0  0  0
 11  9  2  0  0  0  0
 11 24  1  0  0  0  0
 12 11  1  0  0  0  0
 12 25  1  0  0  0  0
 13  6  1  0  0  0  0
 13 15  1  0  0  0  0
 13 14  2  0  0  0  0
 15 16  1  0  0  0  0
 16 26  1  0  0  0  0
 16 27  1  0  0  0  0
 16 28  1  0  0  0  0
M  END
>  <minimizedAffinity>
-7.24088

$$$$

 OpenBabel07052409263D

 28 29  0  0  0  0  0  0  0  0999 V2000
  -50.8052    0.2499  -22.3433 C   0  0  0  0  0  0  0  0  0  0  0  0
  -50.9197    1.2636  -23.2319 C   0  0  0  0  0  0  0  0  0  0  0  0
  -50.9251   -1.1234  -22.8486 C   0  0  0  0  0  0  0  0  0  0  0  0
  -51.3739    1.0168  -24.5920 C   0  0  0  0  0  0  0  0  0  0  0  0
  -51.2592   -1.3623  -24.1296 C   0  0  0  0  0  0  0  0  0  0  0  0
  -51.4864   -0.2491  -25.0360 C   0  0  0  0  0  0  0  0  0  0  0  0
  -50.6059    0.5525  -20.9266 C   0  0  0  0  0  0  0  0  0  0  0  0
  -49.3730    0.4080  -20.3840 C   0  0  0  0  0  0  0  0  0  0  0  0
  -51.6772    1.0552  -20.0597 C   0  0  0  0  0  0  0  0  0  0  0  0
  -49.1193    0.7684  -18.9969 C   0  0  0  0  0  0  0  0  0  0  0  0
  -51.4511    1.3820  -18.7776 C   0  0  0  0  0  0  0  0  0  0  0  0
  -52.9166    1.1853  -20.5772 F   0  0  0  0  0  0  0  0  0  0  0  0
  -50.1215    1.2337  -18.2362 C   0  0  0  0  0  0  0  0  0  0  0  0
  -49.9111    1.5717  -16.9496 F   0  0  0  0  0  0  0  0  0  0  0  0
  -51.8746   -0.4696  -26.4433 C   0  0  0  0  0  0  0  0  0  0  0  0
  -52.0035   -1.5643  -26.9661 O   0  0  0  0  0  0  0  0  0  0  0  0
  -52.0466    0.7268  -27.0572 O   0  0  0  0  0  0  0  0  0  0  0  0
  -51.1207    0.9218  -28.1230 C   0  0  0  0  0  0  0  0  0  0  0  0
  -50.6817    2.2248  -22.9412 H   0  0  0  0  0  0  0  0  0  0  0  0
  -50.7506   -1.9167  -22.2120 H   0  0  0  0  0  0  0  0  0  0  0  0
  -51.6084    1.8074  -25.2125 H   0  0  0  0  0  0  0  0  0  0  0  0
  -51.3539   -2.3328  -24.4676 H   0  0  0  0  0  0  0  0  0  0  0  0
  -48.6029    0.0372  -20.9623 H   0  0  0  0  0  0  0  0  0  0  0  0
  -48.1721    0.6664  -18.6001 H   0  0  0  0  0  0  0  0  0  0  0  0
  -52.2192    1.7353  -18.1858 H   0  0  0  0  0  0  0  0  0  0  0  0
  -51.2939    1.8756  -28.5759 H   0  0  0  0  0  0  0  0  0  0  0  0
  -51.2506    0.1511  -28.8538 H   0  0  0  0  0  0  0  0  0  0  0  0
  -50.1225    0.8851  -27.7395 H   0  0  0  0  0  0  0  0  0  0  0  0
  1  7  1  0  0  0  0
  1  3  1  0  0  0  0
  2  1  2  0  0  0  0
  2 19  1  0  0  0  0
  3  5  2  0  0  0  0
  3 20  1  0  0  0  0
  4  2  1  0  0  0  0
  4 21  1  0  0  0  0
  5  6  1  0  0  0  0
  5 22  1  0  0  0  0
  6  4  2  0  0  0  0
  7  8  2  0  0  0  0
  8 10  1  0  0  0  0
  8 23  1  0  0  0  0
  9  7  1  0  0  0  0
  9 12  1  0  0  0  0
 10 13  2  0  0  0  0
 10 24  1  0  0  0  0
 11  9  2  0  0  0  0
 11 25  1  0  0  0  0
 13 11  1  0  0  0  0
 13 14  1  0  0  0  0
 15  6  1  0  0  0  0
 15 17  1  0  0  0  0
 15 16  2  0  0  0  0
 17 18  1  0  0  0  0
 18 26  1  0  0  0  0
 18 27  1  0  0  0  0
 18 28  1  0  0  0  0
M  END
>  <minimizedAffinity>
-7.65988

$$$$

 OpenBabel07052409263D

 22 22  0  0  0  0  0  0  0  0999 V2000
  -52.4709    1.8804  -20.6913 C   0  0  0  0  0  0  0  0  0  0  0  0
  -53.2731    2.1059  -21.7488 C   0  0  0  0  0  0  0  0  0  0  0  0
  -51.2313    1.1377  -20.8617 C   0  0  0  0  0  0  0  0  0  0  0  0
  -52.9681    1.4983  -23.0352 C   0  0  0  0  0  0  0  0  0  0  0  0
  -50.9155    0.6232  -22.0647 C   0  0  0  0  0  0  0  0  0  0  0  0
  -51.8106    0.8266  -23.1955 C   0  0  0  0  0  0  0  0  0  0  0  0
  -52.5809    2.5890  -19.5175 O   0  0  0  0  0  0  0  0  0  0  0  0
  -51.5001    2.2636  -18.6451 C   0  0  0  0  0  0  0  0  0  0  0  0
  -51.4889    0.2939  -24.5346 C   0  0  0  0  0  0  0  0  0  0  0  0
  -50.3605    0.0731  -24.9426 O   0  0  0  0  0  0  0  0  0  0  0  0
  -52.6347    0.1069  -25.2348 O   0  0  0  0  0  0  0  0  0  0  0  0
  -52.5064    0.5166  -26.5937 C   0  0  0  0  0  0  0  0  0  0  0  0
  -54.1040    2.7095  -21.6470 H   0  0  0  0  0  0  0  0  0  0  0  0
  -50.5945    1.0055  -20.0605 H   0  0  0  0  0  0  0  0  0  0  0  0
  -53.6336    1.5811  -23.8196 H   0  0  0  0  0  0  0  0  0  0  0  0
  -50.0423    0.0865  -22.1854 H   0  0  0  0  0  0  0  0  0  0  0  0
  -51.5956    2.8199  -17.7361 H   0  0  0  0  0  0  0  0  0  0  0  0
  -50.5728    2.5104  -19.1186 H   0  0  0  0  0  0  0  0  0  0  0  0
  -51.5212    1.2164  -18.4263 H   0  0  0  0  0  0  0  0  0  0  0  0
  -53.4316    0.3510  -27.1050 H   0  0  0  0  0  0  0  0  0  0  0  0
  -51.7316   -0.0507  -27.0656 H   0  0  0  0  0  0  0  0  0  0  0  0
  -52.2597    1.5571  -26.6307 H   0  0  0  0  0  0  0  0  0  0  0  0
  1  3  1  0  0  0  0
  2  1  2  0  0  0  0
  2 13  1  0  0  0  0
  3  5  2  0  0  0  0
  3 14  1  0  0  0  0
  4  2  1  0  0  0  0
  4 15  1  0  0  0  0
  5  6  1  0  0  0  0
  5 16  1  0  0  0  0
  6  4  2  0  0  0  0
  7  1  1  0  0  0  0
  7  8  1  0  0  0  0
  8 17  1  0  0  0  0
  8 18  1  0  0  0  0
  8 19  1  0  0  0  0
  9  6  1  0  0  0  0
  9 11  1  0  0  0  0
  9 10  2  0  0  0  0
 11 12  1  0  0  0  0
 12 20  1  0  0  0  0
 12 21  1  0  0  0  0
 12 22  1  0  0  0  0
M  END
>  <minimizedAffinity>
-5.23277

$$$$

 OpenBabel07052409263D

 32 33  0  0  0  0  0  0  0  0999 V2000
  -51.2992    1.1828  -21.8650 C   0  0  0  0  0  0  0  0  0  0  0  0
  -50.1850    0.7909  -21.2048 C   0  0  0  0  0  0  0  0  0  0  0  0
  -52.4334    1.6754  -21.0743 C   0  0  0  0  0  0  0  0  0  0  0  0
  -50.0763    0.9388  -19.7607 C   0  0  0  0  0  0  0  0  0  0  0  0
  -52.3327    1.8298  -19.7418 C   0  0  0  0  0  0  0  0  0  0  0  0
  -51.0842    1.5070  -19.0726 C   0  0  0  0  0  0  0  0  0  0  0  0
  -51.2757    0.7475  -26.1240 C   0  0  0  0  0  0  0  0  0  0  0  0
  -50.2252    1.2964  -25.4892 C   0  0  0  0  0  0  0  0  0  0  0  0
  -52.4922    0.4579  -25.3877 C   0  0  0  0  0  0  0  0  0  0  0  0
  -50.2575    1.4673  -24.0452 C   0  0  0  0  0  0  0  0  0  0  0  0
  -52.5228    0.6223  -24.0531 C   0  0  0  0  0  0  0  0  0  0  0  0
  -51.3398    1.0942  -23.3241 C   0  0  0  0  0  0  0  0  0  0  0  0
  -51.3888    0.7319  -27.4946 O   0  0  0  0  0  0  0  0  0  0  0  0
  -51.3585    2.0642  -28.0032 C   0  0  0  0  0  0  0  0  0  0  0  0
  -50.8713    1.8184  -17.6454 C   0  0  0  0  0  0  0  0  0  0  0  0
  -51.2458    2.8405  -17.0943 O   0  0  0  0  0  0  0  0  0  0  0  0
  -50.1876    0.8065  -17.0566 O   0  0  0  0  0  0  0  0  0  0  0  0
  -49.7164    1.1615  -15.7593 C   0  0  0  0  0  0  0  0  0  0  0  0
  -49.3995    0.3805  -21.7336 H   0  0  0  0  0  0  0  0  0  0  0  0
  -53.3209    1.9066  -21.5474 H   0  0  0  0  0  0  0  0  0  0  0  0
  -49.2316    0.6100  -19.2674 H   0  0  0  0  0  0  0  0  0  0  0  0
  -53.1383    2.1759  -19.1975 H   0  0  0  0  0  0  0  0  0  0  0  0
  -49.3965    1.5962  -26.0262 H   0  0  0  0  0  0  0  0  0  0  0  0
  -53.3323    0.1264  -25.8871 H   0  0  0  0  0  0  0  0  0  0  0  0
  -49.4430    1.8792  -23.5636 H   0  0  0  0  0  0  0  0  0  0  0  0
  -53.3903    0.4137  -23.5345 H   0  0  0  0  0  0  0  0  0  0  0  0
  -51.4471    2.0411  -29.0693 H   0  0  0  0  0  0  0  0  0  0  0  0
  -50.4334    2.5285  -27.7321 H   0  0  0  0  0  0  0  0  0  0  0  0
  -52.1723    2.6224  -27.5897 H   0  0  0  0  0  0  0  0  0  0  0  0
  -49.1848    0.3357  -15.3346 H   0  0  0  0  0  0  0  0  0  0  0  0
  -50.5479    1.4102  -15.1335 H   0  0  0  0  0  0  0  0  0  0  0  0
  -49.0627    2.0051  -15.8358 H   0  0  0  0  0  0  0  0  0  0  0  0
  1 12  1  0  0  0  0
  1  3  1  0  0  0  0
  2  1  2  0  0  0  0
  2 19  1  0  0  0  0
  3  5  2  0  0  0  0
  3 20  1  0  0  0  0
  4  2  1  0  0  0  0
  4 21  1  0  0  0  0
  5  6  1  0  0  0  0
  5 22  1  0  0  0  0
  6  4  2  0  0  0  0
  7  9  1  0  0  0  0
  8  7  2  0  0  0  0
  8 23  1  0  0  0  0
  9 11  2  0  0  0  0
  9 24  1  0  0  0  0
 10  8  1  0  0  0  0
 10 25  1  0  0  0  0
 11 12  1  0  0  0  0
 11 26  1  0  0  0  0
 12 10  2  0  0  0  0
 13  7  1  0  0  0  0
 13 14  1  0  0  0  0
 14 27  1  0  0  0  0
 14 28  1  0  0  0  0
 14 29  1  0  0  0  0
 15  6  1  0  0  0  0
 15 17  1  0  0  0  0
 15 16  2  0  0  0  0
 17 18  1  0  0  0  0
 18 30  1  0  0  0  0
 18 31  1  0  0  0  0
 18 32  1  0  0  0  0
M  END
>  <minimizedAffinity>
-7.39516

$$$$

 OpenBabel07052409263D

 37 38  0  0  0  0  0  0  0  0999 V2000
  -51.1563    0.8526  -22.7483 C   0  0  0  0  0  0  0  0  0  0  0  0
  -50.0691    0.4688  -23.4567 C   0  0  0  0  0  0  0  0  0  0  0  0
  -52.4474    0.9143  -23.4436 C   0  0  0  0  0  0  0  0  0  0  0  0
  -50.1865    0.0512  -24.8463 C   0  0  0  0  0  0  0  0  0  0  0  0
  -52.5651    0.5135  -24.7223 C   0  0  0  0  0  0  0  0  0  0  0  0
  -51.3996    0.0096  -25.4284 C   0  0  0  0  0  0  0  0  0  0  0  0
  -50.8864    1.6014  -18.5168 C   0  0  0  0  0  0  0  0  0  0  0  0
  -51.9012    2.0964  -19.2554 C   0  0  0  0  0  0  0  0  0  0  0  0
  -49.8017    0.9097  -19.2093 C   0  0  0  0  0  0  0  0  0  0  0  0
  -52.0026    1.7998  -20.6744 C   0  0  0  0  0  0  0  0  0  0  0  0
  -49.8690    0.6856  -20.5334 C   0  0  0  0  0  0  0  0  0  0  0  0
  -51.0205    1.1328  -21.3197 C   0  0  0  0  0  0  0  0  0  0  0  0
  -50.8639    1.7036  -17.0035 C   0  0  0  0  0  0  0  0  0  0  0  0
  -51.1771    3.1222  -16.5195 C   0  0  0  0  0  0  0  0  0  0  0  0
  -49.5441    1.2033  -16.4092 C   0  0  0  0  0  0  0  0  0  0  0  0
  -51.5112   -0.5805  -26.7768 C   0  0  0  0  0  0  0  0  0  0  0  0
  -52.1870   -1.5579  -27.0534 O   0  0  0  0  0  0  0  0  0  0  0  0
  -50.7390    0.1194  -27.6440 O   0  0  0  0  0  0  0  0  0  0  0  0
  -51.3145    1.3796  -27.9785 C   0  0  0  0  0  0  0  0  0  0  0  0
  -49.1415    0.4722  -23.0044 H   0  0  0  0  0  0  0  0  0  0  0  0
  -53.2773    1.2705  -22.9441 H   0  0  0  0  0  0  0  0  0  0  0  0
  -49.3445   -0.2115  -25.3821 H   0  0  0  0  0  0  0  0  0  0  0  0
  -53.4788    0.5637  -25.1994 H   0  0  0  0  0  0  0  0  0  0  0  0
  -52.6141    2.6929  -18.8072 H   0  0  0  0  0  0  0  0  0  0  0  0
  -48.9768    0.5904  -18.6777 H   0  0  0  0  0  0  0  0  0  0  0  0
  -52.8385    2.1036  -21.1979 H   0  0  0  0  0  0  0  0  0  0  0  0
  -49.0957    0.1898  -21.0037 H   0  0  0  0  0  0  0  0  0  0  0  0
  -51.6411    1.0595  -16.6485 H   0  0  0  0  0  0  0  0  0  0  0  0
  -50.4150    3.7916  -16.8600 H   0  0  0  0  0  0  0  0  0  0  0  0
  -51.2112    3.1348  -15.4501 H   0  0  0  0  0  0  0  0  0  0  0  0
  -52.1240    3.4314  -16.9102 H   0  0  0  0  0  0  0  0  0  0  0  0
  -48.7424    1.8273  -16.7451 H   0  0  0  0  0  0  0  0  0  0  0  0
  -49.3692    0.1964  -16.7261 H   0  0  0  0  0  0  0  0  0  0  0  0
  -49.5985    1.2367  -15.3411 H   0  0  0  0  0  0  0  0  0  0  0  0
  -50.6727    1.8945  -28.6625 H   0  0  0  0  0  0  0  0  0  0  0  0
  -51.4323    1.9649  -27.0905 H   0  0  0  0  0  0  0  0  0  0  0  0
  -52.2706    1.2256  -28.4336 H   0  0  0  0  0  0  0  0  0  0  0  0
  1 12  1  0  0  0  0
  1  3  1  0  0  0  0
  2  1  2  0  0  0  0
  2 20  1  0  0  0  0
  3  5  2  0  0  0  0
  3 21  1  0  0  0  0
  4  2  1  0  0  0  0
  4 22  1  0  0  0  0
  5  6  1  0  0  0  0
  5 23  1  0  0  0  0
  6  4  2  0  0  0  0
  7  9  1  0  0  0  0
  8  7  2  0  0  0  0
  8 24  1  0  0  0  0
  9 11  2  0  0  0  0
  9 25  1  0  0  0  0
 10  8  1  0  0  0  0
 10 26  1  0  0  0  0
 11 12  1  0  0  0  0
 11 27  1  0  0  0  0
 12 10  2  0  0  0  0
 13  7  1  0  0  0  0
 13 14  1  0  0  0  0
 13 15  1  0  0  0  0
 13 28  1  0  0  0  0
 14 29  1  0  0  0  0
 14 30  1  0  0  0  0
 14 31  1  0  0  0  0
 15 32  1  0  0  0  0
 15 33  1  0  0  0  0
 15 34  1  0  0  0  0
 16  6  1  0  0  0  0
 16 18  1  0  0  0  0
 16 17  2  0  0  0  0
 18 19  1  0  0  0  0
 19 35  1  0  0  0  0
 19 36  1  0  0  0  0
 19 37  1  0  0  0  0
M  END
>  <minimizedAffinity>
-8.16948

$$$$

 OpenBabel07052409263D

 39 41  0  0  0  0  0  0  0  0999 V2000
  -50.9984    0.8256  -23.6824 C   0  0  0  0  0  0  0  0  0  0  0  0
  -51.9576    1.3637  -22.8980 C   0  0  0  0  0  0  0  0  0  0  0  0
  -49.9051    0.1159  -23.0159 C   0  0  0  0  0  0  0  0  0  0  0  0
  -51.7371    1.5392  -21.4713 C   0  0  0  0  0  0  0  0  0  0  0  0
  -49.7343    0.2140  -21.6858 C   0  0  0  0  0  0  0  0  0  0  0  0
  -50.6457    1.0179  -20.8680 C   0  0  0  0  0  0  0  0  0  0  0  0
  -50.9895    1.1208  -25.1167 C   0  0  0  0  0  0  0  0  0  0  0  0
  -51.3943    0.1525  -25.9726 C   0  0  0  0  0  0  0  0  0  0  0  0
  -50.5733    2.4113  -25.6987 C   0  0  0  0  0  0  0  0  0  0  0  0
  -51.5499    0.4171  -27.3932 C   0  0  0  0  0  0  0  0  0  0  0  0
  -50.6815    2.6403  -27.0180 C   0  0  0  0  0  0  0  0  0  0  0  0
  -50.0662    3.3831  -24.8617 O   0  0  0  0  0  0  0  0  0  0  0  0
  -51.2055    1.6138  -27.8968 C   0  0  0  0  0  0  0  0  0  0  0  0
  -50.3841    1.3212  -19.4620 C   0  0  0  0  0  0  0  0  0  0  0  0
  -51.2618    2.0872  -18.7734 C   0  0  0  0  0  0  0  0  0  0  0  0
  -49.2329    0.7696  -18.7376 C   0  0  0  0  0  0  0  0  0  0  0  0
  -51.1316    2.2707  -17.3351 C   0  0  0  0  0  0  0  0  0  0  0  0
  -49.1118    0.9285  -17.4074 C   0  0  0  0  0  0  0  0  0  0  0  0
  -50.1331    1.6561  -16.6736 C   0  0  0  0  0  0  0  0  0  0  0  0
  -50.1211    1.7240  -15.1991 C   0  0  0  0  0  0  0  0  0  0  0  0
  -50.2721    2.7462  -14.5503 O   0  0  0  0  0  0  0  0  0  0  0  0
  -49.9018    0.4868  -14.6899 O   0  0  0  0  0  0  0  0  0  0  0  0
  -50.3294    0.3800  -13.3344 C   0  0  0  0  0  0  0  0  0  0  0  0
  -52.8559    1.6532  -23.3154 H   0  0  0  0  0  0  0  0  0  0  0  0
  -49.2591   -0.4654  -23.5724 H   0  0  0  0  0  0  0  0  0  0  0  0
  -52.4235    2.0691  -20.9117 H   0  0  0  0  0  0  0  0  0  0  0  0
  -48.9506   -0.2837  -21.2351 H   0  0  0  0  0  0  0  0  0  0  0  0
  -51.5963   -0.7919  -25.6089 H   0  0  0  0  0  0  0  0  0  0  0  0
  -51.9254   -0.3153  -28.0158 H   0  0  0  0  0  0  0  0  0  0  0  0
  -50.3904    3.5507  -27.4072 H   0  0  0  0  0  0  0  0  0  0  0  0
  -49.9930    3.2179  -23.9423 H   0  0  0  0  0  0  0  0  0  0  0  0
  -51.3136    1.8016  -28.9058 H   0  0  0  0  0  0  0  0  0  0  0  0
  -52.0360    2.5488  -19.2760 H   0  0  0  0  0  0  0  0  0  0  0  0
  -48.5059    0.2524  -19.2563 H   0  0  0  0  0  0  0  0  0  0  0  0
  -51.8009    2.8685  -16.8255 H   0  0  0  0  0  0  0  0  0  0  0  0
  -48.2973    0.5354  -16.9104 H   0  0  0  0  0  0  0  0  0  0  0  0
  -50.1370   -0.6099  -12.9767 H   0  0  0  0  0  0  0  0  0  0  0  0
  -51.3781    0.5835  -13.2742 H   0  0  0  0  0  0  0  0  0  0  0  0
  -49.7940    1.0862  -12.7348 H   0  0  0  0  0  0  0  0  0  0  0  0
  1  7  1  0  0  0  0
  1  3  1  0  0  0  0
  2  1  2  0  0  0  0
  2 24  1  0  0  0  0
  3  5  2  0  0  0  0
  3 25  1  0  0  0  0
  4  2  1  0  0  0  0
  4 26  1  0  0  0  0
  5  6  1  0  0  0  0
  5 27  1  0  0  0  0
  6  4  2  0  0  0  0
  7  8  2  0  0  0  0
  8 10  1  0  0  0  0
  8 28  1  0  0  0  0
  9  7  1  0  0  0  0
  9 12  1  0  0  0  0
 10 13  2  0  0  0  0
 10 29  1  0  0  0  0
 11  9  2  0  0  0  0
 11 30  1  0  0  0  0
 12 31  1  0  0  0  0
 13 11  1  0  0  0  0
 13 32  1  0  0  0  0
 14  6  1  0  0  0  0
 14 16  1  0  0  0  0
 15 14  2  0  0  0  0
 15 33  1  0  0  0  0
 16 18  2  0  0  0  0
 16 34  1  0  0  0  0
 17 15  1  0  0  0  0
 17 35  1  0  0  0  0
 18 19  1  0  0  0  0
 18 36  1  0  0  0  0
 19 17  2  0  0  0  0
 20 19  1  0  0  0  0
 20 22  1  0  0  0  0
 20 21  2  0  0  0  0
 22 23  1  0  0  0  0
 23 37  1  0  0  0  0
 23 38  1  0  0  0  0
 23 39  1  0  0  0  0
M  END
>  <minimizedAffinity>
-9.18853

$$$$

 OpenBabel07052409263D

 42 44  0  0  0  0  0  0  0  0999 V2000
  -51.2524    0.9560  -22.5360 C   0  0  0  0  0  0  0  0  0  0  0  0
  -50.2095    0.3490  -21.9290 C   0  0  0  0  0  0  0  0  0  0  0  0
  -52.3006    1.5114  -21.6783 C   0  0  0  0  0  0  0  0  0  0  0  0
  -49.9697    0.5302  -20.5063 C   0  0  0  0  0  0  0  0  0  0  0  0
  -52.1216    1.6077  -20.3493 C   0  0  0  0  0  0  0  0  0  0  0  0
  -50.8826    1.1437  -19.7207 C   0  0  0  0  0  0  0  0  0  0  0  0
  -51.2162    1.1786  -23.9829 C   0  0  0  0  0  0  0  0  0  0  0  0
  -50.4716    2.2060  -24.4541 C   0  0  0  0  0  0  0  0  0  0  0  0
  -51.9312    0.3509  -24.9709 C   0  0  0  0  0  0  0  0  0  0  0  0
  -50.4608    2.5483  -25.8667 C   0  0  0  0  0  0  0  0  0  0  0  0
  -51.8976    0.6520  -26.2797 C   0  0  0  0  0  0  0  0  0  0  0  0
  -52.6379   -0.7478  -24.5274 O   0  0  0  0  0  0  0  0  0  0  0  0
  -51.1454    1.8048  -26.7568 C   0  0  0  0  0  0  0  0  0  0  0  0
  -51.1761    2.0917  -28.2254 C   0  0  0  0  0  0  0  0  0  0  0  0
  -50.5892    1.3591  -18.3045 C   0  0  0  0  0  0  0  0  0  0  0  0
  -51.2831    2.2957  -17.6174 C   0  0  0  0  0  0  0  0  0  0  0  0
  -49.5317    0.6259  -17.5985 C   0  0  0  0  0  0  0  0  0  0  0  0
  -50.9864    2.5778  -16.2213 C   0  0  0  0  0  0  0  0  0  0  0  0
  -49.2717    0.8629  -16.3000 C   0  0  0  0  0  0  0  0  0  0  0  0
  -50.0505    1.8548  -15.5785 C   0  0  0  0  0  0  0  0  0  0  0  0
  -49.8142    2.1240  -14.1467 C   0  0  0  0  0  0  0  0  0  0  0  0
  -49.8692    3.2274  -13.6293 O   0  0  0  0  0  0  0  0  0  0  0  0
  -49.5431    0.9593  -13.5082 O   0  0  0  0  0  0  0  0  0  0  0  0
  -50.6983    0.4012  -12.8873 C   0  0  0  0  0  0  0  0  0  0  0  0
  -49.5759   -0.2500  -22.4811 H   0  0  0  0  0  0  0  0  0  0  0  0
  -53.1868    1.8326  -22.0984 H   0  0  0  0  0  0  0  0  0  0  0  0
  -49.0902    0.1856  -20.0906 H   0  0  0  0  0  0  0  0  0  0  0  0
  -52.8678    2.0143  -19.7637 H   0  0  0  0  0  0  0  0  0  0  0  0
  -49.8993    2.7581  -23.7963 H   0  0  0  0  0  0  0  0  0  0  0  0
  -49.9239    3.3681  -26.1903 H   0  0  0  0  0  0  0  0  0  0  0  0
  -52.4094    0.0611  -26.9535 H   0  0  0  0  0  0  0  0  0  0  0  0
  -52.6585   -0.9539  -23.6136 H   0  0  0  0  0  0  0  0  0  0  0  0
  -50.5852    2.9595  -28.4317 H   0  0  0  0  0  0  0  0  0  0  0  0
  -52.1858    2.2662  -28.5337 H   0  0  0  0  0  0  0  0  0  0  0  0
  -50.7793    1.2545  -28.7607 H   0  0  0  0  0  0  0  0  0  0  0  0
  -52.0356    2.8189  -18.0917 H   0  0  0  0  0  0  0  0  0  0  0  0
  -48.9790   -0.0825  -18.1061 H   0  0  0  0  0  0  0  0  0  0  0  0
  -51.4914    3.3291  -15.7259 H   0  0  0  0  0  0  0  0  0  0  0  0
  -48.5221    0.3422  -15.8183 H   0  0  0  0  0  0  0  0  0  0  0  0
  -50.4339   -0.5132  -12.3986 H   0  0  0  0  0  0  0  0  0  0  0  0
  -51.4434    0.2062  -13.6301 H   0  0  0  0  0  0  0  0  0  0  0  0
  -51.0848    1.0917  -12.1671 H   0  0  0  0  0  0  0  0  0  0  0  0
  1  7  1  0  0  0  0
  1  3  1  0  0  0  0
  2  1  2  0  0  0  0
  2 25  1  0  0  0  0
  3  5  2  0  0  0  0
  3 26  1  0  0  0  0
  4  2  1  0  0  0  0
  4 27  1  0  0  0  0
  5  6  1  0  0  0  0
  5 28  1  0  0  0  0
  6  4  2  0  0  0  0
  7  8  2  0  0  0  0
  8 10  1  0  0  0  0
  8 29  1  0  0  0  0
  9  7  1  0  0  0  0
  9 12  1  0  0  0  0
 10 13  2  0  0  0  0
 10 30  1  0  0  0  0
 11  9  2  0  0  0  0
 11 31  1  0  0  0  0
 12 32  1  0  0  0  0
 13 11  1  0  0  0  0
 13 14  1  0  0  0  0
 14 33  1  0  0  0  0
 14 34  1  0  0  0  0
 14 35  1  0  0  0  0
 15  6  1  0  0  0  0
 15 17  1  0  0  0  0
 16 15  2  0  0  0  0
 16 36  1  0  0  0  0
 17 19  2  0  0  0  0
 17 37  1  0  0  0  0
 18 16  1  0  0  0  0
 18 38  1  0  0  0  0
 19 20  1  0  0  0  0
 19 39  1  0  0  0  0
 20 18  2  0  0  0  0
 21 20  1  0  0  0  0
 21 23  1  0  0  0  0
 21 22  2  0  0  0  0
 23 24  1  0  0  0  0
 24 40  1  0  0  0  0
 24 41  1  0  0  0  0
 24 42  1  0  0  0  0
M  END
>  <minimizedAffinity>
-9.24868

$$$$

 OpenBabel07052409263D

 38 40  0  0  0  0  0  0  0  0999 V2000
  -50.9693    0.7920  -23.4575 C   0  0  0  0  0  0  0  0  0  0  0  0
  -51.9044    1.3771  -22.6773 C   0  0  0  0  0  0  0  0  0  0  0  0
  -49.8855    0.0713  -22.7875 C   0  0  0  0  0  0  0  0  0  0  0  0
  -51.6989    1.5199  -21.2445 C   0  0  0  0  0  0  0  0  0  0  0  0
  -49.7226    0.1554  -21.4554 C   0  0  0  0  0  0  0  0  0  0  0  0
  -50.6295    0.9613  -20.6356 C   0  0  0  0  0  0  0  0  0  0  0  0
  -51.0467    0.9346  -24.9103 C   0  0  0  0  0  0  0  0  0  0  0  0
  -51.5563   -0.0770  -25.6516 C   0  0  0  0  0  0  0  0  0  0  0  0
  -50.6294    2.1483  -25.6166 C   0  0  0  0  0  0  0  0  0  0  0  0
  -51.7048    0.0481  -27.0935 C   0  0  0  0  0  0  0  0  0  0  0  0
  -50.7569    2.2670  -26.9479 C   0  0  0  0  0  0  0  0  0  0  0  0
  -50.1045    3.1642  -24.8997 F   0  0  0  0  0  0  0  0  0  0  0  0
  -51.3191    1.1743  -27.7181 C   0  0  0  0  0  0  0  0  0  0  0  0
  -50.3890    1.2225  -19.2172 C   0  0  0  0  0  0  0  0  0  0  0  0
  -51.2580    1.9970  -18.5275 C   0  0  0  0  0  0  0  0  0  0  0  0
  -49.2582    0.6355  -18.4885 C   0  0  0  0  0  0  0  0  0  0  0  0
  -51.1182    2.1891  -17.0920 C   0  0  0  0  0  0  0  0  0  0  0  0
  -49.1268    0.8044  -17.1604 C   0  0  0  0  0  0  0  0  0  0  0  0
  -50.1179    1.5771  -16.4311 C   0  0  0  0  0  0  0  0  0  0  0  0
  -50.0434    1.7295  -14.9649 C   0  0  0  0  0  0  0  0  0  0  0  0
  -50.1585    2.7883  -14.3698 O   0  0  0  0  0  0  0  0  0  0  0  0
  -49.8393    0.5169  -14.3936 O   0  0  0  0  0  0  0  0  0  0  0  0
  -50.5314    0.3820  -13.1550 C   0  0  0  0  0  0  0  0  0  0  0  0
  -52.7764    1.7275  -23.1038 H   0  0  0  0  0  0  0  0  0  0  0  0
  -49.2384   -0.5085  -23.3444 H   0  0  0  0  0  0  0  0  0  0  0  0
  -52.3800    2.0559  -20.6844 H   0  0  0  0  0  0  0  0  0  0  0  0
  -48.9474   -0.3553  -21.0045 H   0  0  0  0  0  0  0  0  0  0  0  0
  -51.8444   -0.9518  -25.1860 H   0  0  0  0  0  0  0  0  0  0  0  0
  -52.1075   -0.7302  -27.6385 H   0  0  0  0  0  0  0  0  0  0  0  0
  -50.4558    3.1330  -27.4216 H   0  0  0  0  0  0  0  0  0  0  0  0
  -51.4226    1.2609  -28.7412 H   0  0  0  0  0  0  0  0  0  0  0  0
  -52.0331    2.4593  -19.0281 H   0  0  0  0  0  0  0  0  0  0  0  0
  -48.5531    0.0848  -19.0029 H   0  0  0  0  0  0  0  0  0  0  0  0
  -51.7831    2.7920  -16.5827 H   0  0  0  0  0  0  0  0  0  0  0  0
  -48.3255    0.3870  -16.6617 H   0  0  0  0  0  0  0  0  0  0  0  0
  -50.3408   -0.5872  -12.7436 H   0  0  0  0  0  0  0  0  0  0  0  0
  -51.5822    0.4995  -13.3190 H   0  0  0  0  0  0  0  0  0  0  0  0
  -50.1908    1.1324  -12.4725 H   0  0  0  0  0  0  0  0  0  0  0  0
  1  7  1  0  0  0  0
  1  3  1  0  0  0  0
  2  1  2  0  0  0  0
  2 24  1  0  0  0  0
  3  5  2  0  0  0  0
  3 25  1  0  0  0  0
  4  2  1  0  0  0  0
  4 26  1  0  0  0  0
  5  6  1  0  0  0  0
  5 27  1  0  0  0  0
  6  4  2  0  0  0  0
  7  8  2  0  0  0  0
  8 10  1  0  0  0  0
  8 28  1  0  0  0  0
  9  7  1  0  0  0  0
  9 12  1  0  0  0  0
 10 13  2  0  0  0  0
 10 29  1  0  0  0  0
 11  9  2  0  0  0  0
 11 30  1  0  0  0  0
 13 11  1  0  0  0  0
 13 31  1  0  0  0  0
 14  6  1  0  0  0  0
 14 16  1  0  0  0  0
 15 14  2  0  0  0  0
 15 32  1  0  0  0  0
 16 18  2  0  0  0  0
 16 33  1  0  0  0  0
 17 15  1  0  0  0  0
 17 34  1  0  0  0  0
 18 19  1  0  0  0  0
 18 35  1  0  0  0  0
 19 17  2  0  0  0  0
 20 19  1  0  0  0  0
 20 22  1  0  0  0  0
 20 21  2  0  0  0  0
 22 23  1  0  0  0  0
 23 36  1  0  0  0  0
 23 37  1  0  0  0  0
 23 38  1  0  0  0  0
M  END
>  <minimizedAffinity>
-9.11478

$$$$

 OpenBabel07052409263D

 38 40  0  0  0  0  0  0  0  0999 V2000
  -50.9847    0.7935  -22.9870 C   0  0  0  0  0  0  0  0  0  0  0  0
  -49.9245    0.2428  -22.3557 C   0  0  0  0  0  0  0  0  0  0  0  0
  -51.9697    1.5058  -22.1718 C   0  0  0  0  0  0  0  0  0  0  0  0
  -49.7776    0.3343  -20.9118 C   0  0  0  0  0  0  0  0  0  0  0  0
  -51.8184    1.6153  -20.8403 C   0  0  0  0  0  0  0  0  0  0  0  0
  -50.6610    1.0296  -20.1620 C   0  0  0  0  0  0  0  0  0  0  0  0
  -51.0918    0.6912  -24.4419 C   0  0  0  0  0  0  0  0  0  0  0  0
  -50.7920    1.7656  -25.2087 C   0  0  0  0  0  0  0  0  0  0  0  0
  -51.4779   -0.5549  -25.1176 C   0  0  0  0  0  0  0  0  0  0  0  0
  -50.8362    1.6860  -26.6605 C   0  0  0  0  0  0  0  0  0  0  0  0
  -51.5220   -0.6276  -26.4603 C   0  0  0  0  0  0  0  0  0  0  0  0
  -51.1875    0.5343  -27.2508 C   0  0  0  0  0  0  0  0  0  0  0  0
  -51.2370    0.4338  -28.5934 F   0  0  0  0  0  0  0  0  0  0  0  0
  -50.4065    1.2168  -18.7345 C   0  0  0  0  0  0  0  0  0  0  0  0
  -51.2138    2.0305  -18.0158 C   0  0  0  0  0  0  0  0  0  0  0  0
  -49.2855    0.5683  -18.0431 C   0  0  0  0  0  0  0  0  0  0  0  0
  -50.9952    2.2397  -16.5918 C   0  0  0  0  0  0  0  0  0  0  0  0
  -49.0965    0.7345  -16.7219 C   0  0  0  0  0  0  0  0  0  0  0  0
  -50.0155    1.5645  -15.9622 C   0  0  0  0  0  0  0  0  0  0  0  0
  -49.9099    1.6874  -14.4947 C   0  0  0  0  0  0  0  0  0  0  0  0
  -49.9238    2.7428  -13.8828 O   0  0  0  0  0  0  0  0  0  0  0  0
  -49.7825    0.4546  -13.9450 O   0  0  0  0  0  0  0  0  0  0  0  0
  -50.7024    0.2465  -12.8764 C   0  0  0  0  0  0  0  0  0  0  0  0
  -49.2063   -0.2515  -22.9080 H   0  0  0  0  0  0  0  0  0  0  0  0
  -52.7932    1.9306  -22.6261 H   0  0  0  0  0  0  0  0  0  0  0  0
  -48.9849   -0.1400  -20.4517 H   0  0  0  0  0  0  0  0  0  0  0  0
  -52.5292    2.1200  -20.2880 H   0  0  0  0  0  0  0  0  0  0  0  0
  -50.5280    2.6549  -24.7564 H   0  0  0  0  0  0  0  0  0  0  0  0
  -51.7185   -1.3857  -24.5547 H   0  0  0  0  0  0  0  0  0  0  0  0
  -50.5986    2.5111  -27.2329 H   0  0  0  0  0  0  0  0  0  0  0  0
  -51.7935   -1.5091  -26.9232 H   0  0  0  0  0  0  0  0  0  0  0  0
  -51.9976    2.5109  -18.4848 H   0  0  0  0  0  0  0  0  0  0  0  0
  -48.6324   -0.0243  -18.5791 H   0  0  0  0  0  0  0  0  0  0  0  0
  -51.5882    2.9021  -16.0678 H   0  0  0  0  0  0  0  0  0  0  0  0
  -48.3023    0.2745  -16.2500 H   0  0  0  0  0  0  0  0  0  0  0  0
  -50.5660   -0.7358  -12.4746 H   0  0  0  0  0  0  0  0  0  0  0  0
  -51.7029    0.3464  -13.2425 H   0  0  0  0  0  0  0  0  0  0  0  0
  -50.5289    0.9727  -12.1099 H   0  0  0  0  0  0  0  0  0  0  0  0
  1  7  1  0  0  0  0
  1  3  1  0  0  0  0
  2  1  2  0  0  0  0
  2 24  1  0  0  0  0
  3  5  2  0  0  0  0
  3 25  1  0  0  0  0
  4  2  1  0  0  0  0
  4 26  1  0  0  0  0
  5  6  1  0  0  0  0
  5 27  1  0  0  0  0
  6  4  2  0  0  0  0
  7  8  2  0  0  0  0
  8 10  1  0  0  0  0
  8 28  1  0  0  0  0
  9  7  1  0  0  0  0
  9 29  1  0  0  0  0
 10 12  2  0  0  0  0
 10 30  1  0  0  0  0
 11  9  2  0  0  0  0
 11 31  1  0  0  0  0
 12 11  1  0  0  0  0
 12 13  1  0  0  0  0
 14  6  1  0  0  0  0
 14 16  1  0  0  0  0
 15 14  2  0  0  0  0
 15 32  1  0  0  0  0
 16 18  2  0  0  0  0
 16 33  1  0  0  0  0
 17 15  1  0  0  0  0
 17 34  1  0  0  0  0
 18 19  1  0  0  0  0
 18 35  1  0  0  0  0
 19 17  2  0  0  0  0
 20 19  1  0  0  0  0
 20 22  1  0  0  0  0
 20 21  2  0  0  0  0
 22 23  1  0  0  0  0
 23 36  1  0  0  0  0
 23 37  1  0  0  0  0
 23 38  1  0  0  0  0
M  END
>  <minimizedAffinity>
-8.80051

$$$$

 OpenBabel07052409263D

 38 40  0  0  0  0  0  0  0  0999 V2000
  -49.8076    1.0047  -18.3741 C   0  0  0  0  0  0  0  0  0  0  0  0
  -48.9746    0.3443  -19.2080 C   0  0  0  0  0  0  0  0  0  0  0  0
  -51.0220    1.5893  -18.9450 C   0  0  0  0  0  0  0  0  0  0  0  0
  -49.2766    0.2107  -20.6241 C   0  0  0  0  0  0  0  0  0  0  0  0
  -51.3022    1.4645  -20.2540 C   0  0  0  0  0  0  0  0  0  0  0  0
  -50.4022    0.7394  -21.1523 C   0  0  0  0  0  0  0  0  0  0  0  0
  -49.4557    1.1419  -16.9614 C   0  0  0  0  0  0  0  0  0  0  0  0
  -50.3277    1.7304  -16.1111 C   0  0  0  0  0  0  0  0  0  0  0  0
  -48.1676    0.6919  -16.4223 C   0  0  0  0  0  0  0  0  0  0  0  0
  -50.0067    1.8972  -14.7034 C   0  0  0  0  0  0  0  0  0  0  0  0
  -47.8679    0.8498  -15.1210 C   0  0  0  0  0  0  0  0  0  0  0  0
  -48.8238    1.4741  -14.2272 C   0  0  0  0  0  0  0  0  0  0  0  0
  -50.6978    0.5380  -22.5701 C   0  0  0  0  0  0  0  0  0  0  0  0
  -51.9236    0.8571  -23.0458 C   0  0  0  0  0  0  0  0  0  0  0  0
  -49.7296   -0.0560  -23.4997 C   0  0  0  0  0  0  0  0  0  0  0  0
  -52.3056    0.5378  -24.4131 C   0  0  0  0  0  0  0  0  0  0  0  0
  -50.0788   -0.3600  -24.7627 C   0  0  0  0  0  0  0  0  0  0  0  0
  -51.4336   -0.0980  -25.2177 C   0  0  0  0  0  0  0  0  0  0  0  0
  -51.8822   -0.5045  -26.5638 C   0  0  0  0  0  0  0  0  0  0  0  0
  -51.9005   -1.6544  -26.9712 O   0  0  0  0  0  0  0  0  0  0  0  0
  -52.2575    0.5924  -27.2666 O   0  0  0  0  0  0  0  0  0  0  0  0
  -51.1556    1.2153  -27.9219 C   0  0  0  0  0  0  0  0  0  0  0  0
  -48.1083   -0.0729  -18.8331 H   0  0  0  0  0  0  0  0  0  0  0  0
  -51.6734    2.1054  -18.3331 H   0  0  0  0  0  0  0  0  0  0  0  0
  -48.6194   -0.2971  -21.2367 H   0  0  0  0  0  0  0  0  0  0  0  0
  -52.1651    1.8864  -20.6313 H   0  0  0  0  0  0  0  0  0  0  0  0
  -51.2359    2.0665  -16.4678 H   0  0  0  0  0  0  0  0  0  0  0  0
  -47.4809    0.2473  -17.0515 H   0  0  0  0  0  0  0  0  0  0  0  0
  -50.6885    2.3413  -14.0686 H   0  0  0  0  0  0  0  0  0  0  0  0
  -46.9574    0.5266  -14.7584 H   0  0  0  0  0  0  0  0  0  0  0  0
  -48.5961    1.5932  -13.2277 H   0  0  0  0  0  0  0  0  0  0  0  0
  -52.5988    1.3349  -22.4287 H   0  0  0  0  0  0  0  0  0  0  0  0
  -48.7665   -0.2432  -23.1796 H   0  0  0  0  0  0  0  0  0  0  0  0
  -53.2406    0.7976  -24.7643 H   0  0  0  0  0  0  0  0  0  0  0  0
  -49.3877   -0.7774  -25.4055 H   0  0  0  0  0  0  0  0  0  0  0  0
  -51.4998    2.0728  -28.4614 H   0  0  0  0  0  0  0  0  0  0  0  0
  -50.7071    0.5221  -28.6025 H   0  0  0  0  0  0  0  0  0  0  0  0
  -50.4327    1.5186  -27.1937 H   0  0  0  0  0  0  0  0  0  0  0  0
  1  7  1  0  0  0  0
  1  3  1  0  0  0  0
  2  1  2  0  0  0  0
  2 23  1  0  0  0  0
  3  5  2  0  0  0  0
  3 24  1  0  0  0  0
  4  2  1  0  0  0  0
  4 25  1  0  0  0  0
  5  6  1  0  0  0  0
  5 26  1  0  0  0  0
  6  4  2  0  0  0  0
  7  8  2  0  0  0  0
  8 10  1  0  0  0  0
  8 27  1  0  0  0  0
  9  7  1  0  0  0  0
  9 28  1  0  0  0  0
 10 12  2  0  0  0  0
 10 29  1  0  0  0  0
 11  9  2  0  0  0  0
 11 30  1  0  0  0  0
 12 11  1  0  0  0  0
 12 31  1  0  0  0  0
 13  6  1  0  0  0  0
 13 15  1  0  0  0  0
 14 13  2  0  0  0  0
 14 32  1  0  0  0  0
 15 17  2  0  0  0  0
 15 33  1  0  0  0  0
 16 14  1  0  0  0  0
 16 34  1  0  0  0  0
 17 18  1  0  0  0  0
 17 35  1  0  0  0  0
 18 16  2  0  0  0  0
 19 18  1  0  0  0  0
 19 21  1  0  0  0  0
 19 20  2  0  0  0  0
 21 22  1  0  0  0  0
 22 36  1  0  0  0  0
 22 37  1  0  0  0  0
 22 38  1  0  0  0  0
M  END
>  <minimizedAffinity>
-8.59572

$$$$

 OpenBabel07052409263D

 31 32  0  0  0  0  0  0  0  0999 V2000
  -50.6176    1.7743  -21.3364 N   0  0  0  0  0  0  0  0  0  0  0  0
  -50.5721    1.5479  -19.9644 C   0  0  0  0  0  0  0  0  0  0  0  0
  -49.6211    0.8333  -19.3249 C   0  0  0  0  0  0  0  0  0  0  0  0
  -51.5731    2.2417  -19.1469 C   0  0  0  0  0  0  0  0  0  0  0  0
  -49.5159    0.8433  -17.8668 C   0  0  0  0  0  0  0  0  0  0  0  0
  -51.5102    2.2297  -17.8073 C   0  0  0  0  0  0  0  0  0  0  0  0
  -52.5669    2.9109  -19.8237 O   0  0  0  0  0  0  0  0  0  0  0  0
  -47.9861   -0.1846  -16.9368 I   0  0  0  0  0  0  0  0  0  0  0  0
  -50.4344    1.5153  -17.1437 C   0  0  0  0  0  0  0  0  0  0  0  0
  -51.2007    0.8916  -22.2309 C   0  0  0  0  0  0  0  0  0  0  0  0
  -50.6262   -0.2634  -22.6321 C   0  0  0  0  0  0  0  0  0  0  0  0
  -52.3917    1.3423  -22.9520 C   0  0  0  0  0  0  0  0  0  0  0  0
  -50.9157   -0.8142  -23.9498 C   0  0  0  0  0  0  0  0  0  0  0  0
  -52.7107    0.8065  -24.1447 C   0  0  0  0  0  0  0  0  0  0  0  0
  -51.8719   -0.2403  -24.7058 C   0  0  0  0  0  0  0  0  0  0  0  0
  -52.0122   -0.6734  -26.1098 C   0  0  0  0  0  0  0  0  0  0  0  0
  -51.8474   -1.8173  -26.5012 O   0  0  0  0  0  0  0  0  0  0  0  0
  -52.3621    0.3863  -26.8791 O   0  0  0  0  0  0  0  0  0  0  0  0
  -51.2495    0.9295  -27.5852 C   0  0  0  0  0  0  0  0  0  0  0  0
  -50.2162    2.6014  -21.6885 H   0  0  0  0  0  0  0  0  0  0  0  0
  -48.9557    0.2692  -19.8763 H   0  0  0  0  0  0  0  0  0  0  0  0
  -52.2234    2.7261  -17.2506 H   0  0  0  0  0  0  0  0  0  0  0  0
  -52.5843    2.9010  -20.7605 H   0  0  0  0  0  0  0  0  0  0  0  0
  -50.3724    1.5219  -16.1136 H   0  0  0  0  0  0  0  0  0  0  0  0
  -49.9776   -0.7592  -22.0008 H   0  0  0  0  0  0  0  0  0  0  0  0
  -52.9912    2.0761  -22.5431 H   0  0  0  0  0  0  0  0  0  0  0  0
  -50.3948   -1.6336  -24.2995 H   0  0  0  0  0  0  0  0  0  0  0  0
  -53.5439    1.1359  -24.6568 H   0  0  0  0  0  0  0  0  0  0  0  0
  -51.5735    1.7604  -28.1764 H   0  0  0  0  0  0  0  0  0  0  0  0
  -50.8312    0.1793  -28.2233 H   0  0  0  0  0  0  0  0  0  0  0  0
  -50.5085    1.2566  -26.8860 H   0  0  0  0  0  0  0  0  0  0  0  0
  1  2  1  0  0  0  0
  1 10  1  0  0  0  0
  1 20  1  0  0  0  0
  2  3  2  0  0  0  0
  3  5  1  0  0  0  0
  3 21  1  0  0  0  0
  4  2  1  0  0  0  0
  4  7  1  0  0  0  0
  5  8  1  0  0  0  0
  5  9  2  0  0  0  0
  6  4  2  0  0  0  0
  6 22  1  0  0  0  0
  7 23  1  0  0  0  0
  9  6  1  0  0  0  0
  9 24  1  0  0  0  0
 10 12  1  0  0  0  0
 11 10  2  0  0  0  0
 11 25  1  0  0  0  0
 12 14  2  0  0  0  0
 12 26  1  0  0  0  0
 13 11  1  0  0  0  0
 13 27  1  0  0  0  0
 14 15  1  0  0  0  0
 14 28  1  0  0  0  0
 15 13  2  0  0  0  0
 16 15  1  0  0  0  0
 16 18  1  0  0  0  0
 16 17  2  0  0  0  0
 18 19  1  0  0  0  0
 19 29  1  0  0  0  0
 19 30  1  0  0  0  0
 19 31  1  0  0  0  0
M  END
>  <minimizedAffinity>
-7.27594

$$$$

 OpenBabel07052409263D

 30 31  0  0  0  0  0  0  0  0999 V2000
  -51.4766    0.5486  -23.4683 C   0  0  0  0  0  0  0  0  0  0  0  0
  -52.4091    0.1481  -24.3592 C   0  0  0  0  0  0  0  0  0  0  0  0
  -50.4544    1.4916  -23.9202 C   0  0  0  0  0  0  0  0  0  0  0  0
  -52.2535    0.4288  -25.7783 C   0  0  0  0  0  0  0  0  0  0  0  0
  -50.3525    1.8303  -25.2184 C   0  0  0  0  0  0  0  0  0  0  0  0
  -51.2826    1.2687  -26.1847 C   0  0  0  0  0  0  0  0  0  0  0  0
  -51.3098    0.0068  -22.2050 N   0  0  0  0  0  0  0  0  0  0  0  0
  -51.1261    0.7825  -21.0642 C   0  0  0  0  0  0  0  0  0  0  0  0
  -52.0321    1.7001  -20.6609 C   0  0  0  0  0  0  0  0  0  0  0  0
  -49.9457    0.5720  -20.1997 C   0  0  0  0  0  0  0  0  0  0  0  0
  -52.0913    2.1186  -19.2723 C   0  0  0  0  0  0  0  0  0  0  0  0
  -49.9457    1.0546  -18.9403 C   0  0  0  0  0  0  0  0  0  0  0  0
  -48.4536   -0.3254  -20.8878 Br  0  0  0  0  0  0  0  0  0  0  0  0
  -51.0849    1.8039  -18.4401 C   0  0  0  0  0  0  0  0  0  0  0  0
  -51.1443    1.5421  -27.6287 C   0  0  0  0  0  0  0  0  0  0  0  0
  -51.0796    0.6869  -28.4962 O   0  0  0  0  0  0  0  0  0  0  0  0
  -51.1104    2.8824  -27.8320 O   0  0  0  0  0  0  0  0  0  0  0  0
  -52.2310    3.3410  -28.5839 C   0  0  0  0  0  0  0  0  0  0  0  0
  -53.2425   -0.3634  -24.0293 H   0  0  0  0  0  0  0  0  0  0  0  0
  -49.8023    1.9029  -23.2341 H   0  0  0  0  0  0  0  0  0  0  0  0
  -52.8821   -0.0122  -26.4678 H   0  0  0  0  0  0  0  0  0  0  0  0
  -49.6175    2.4857  -25.5269 H   0  0  0  0  0  0  0  0  0  0  0  0
  -51.3217   -0.9730  -22.1093 H   0  0  0  0  0  0  0  0  0  0  0  0
  -52.6878    2.1070  -21.3461 H   0  0  0  0  0  0  0  0  0  0  0  0
  -52.9022    2.6550  -18.9262 H   0  0  0  0  0  0  0  0  0  0  0  0
  -49.1312    0.8904  -18.3282 H   0  0  0  0  0  0  0  0  0  0  0  0
  -51.1210    2.0931  -17.4501 H   0  0  0  0  0  0  0  0  0  0  0  0
  -52.1609    4.4002  -28.7185 H   0  0  0  0  0  0  0  0  0  0  0  0
  -53.1331    3.1072  -28.0581 H   0  0  0  0  0  0  0  0  0  0  0  0
  -52.2403    2.8599  -29.5396 H   0  0  0  0  0  0  0  0  0  0  0  0
  1  3  1  0  0  0  0
  2  1  2  0  0  0  0
  2 19  1  0  0  0  0
  3  5  2  0  0  0  0
  3 20  1  0  0  0  0
  4  2  1  0  0  0  0
  4 21  1  0  0  0  0
  5  6  1  0  0  0  0
  5 22  1  0  0  0  0
  6  4  2  0  0  0  0
  7  8  1  0  0  0  0
  7  1  1  0  0  0  0
  7 23  1  0  0  0  0
  8  9  2  0  0  0  0
  9 11  1  0  0  0  0
  9 24  1  0  0  0  0
 10  8  1  0  0  0  0
 10 13  1  0  0  0  0
 11 14  2  0  0  0  0
 11 25  1  0  0  0  0
 12 10  2  0  0  0  0
 12 26  1  0  0  0  0
 14 12  1  0  0  0  0
 14 27  1  0  0  0  0
 15  6  1  0  0  0  0
 15 17  1  0  0  0  0
 15 16  2  0  0  0  0
 17 18  1  0  0  0  0
 18 28  1  0  0  0  0
 18 29  1  0  0  0  0
 18 30  1  0  0  0  0
M  END
>  <minimizedAffinity>
-7.10700

$$$$

 OpenBabel07052409263D

 33 34  0  0  0  0  0  0  0  0999 V2000
  -51.1706    0.7501  -21.2785 C   0  0  0  0  0  0  0  0  0  0  0  0
  -52.1346    1.5143  -20.7232 C   0  0  0  0  0  0  0  0  0  0  0  0
  -49.9415    0.5330  -20.5157 C   0  0  0  0  0  0  0  0  0  0  0  0
  -52.0715    1.8912  -19.3188 C   0  0  0  0  0  0  0  0  0  0  0  0
  -49.8341    0.9540  -19.2418 C   0  0  0  0  0  0  0  0  0  0  0  0
  -50.9454    1.6540  -18.6189 C   0  0  0  0  0  0  0  0  0  0  0  0
  -51.3097    0.0270  -22.4475 N   0  0  0  0  0  0  0  0  0  0  0  0
  -51.3317    0.5883  -23.7110 C   0  0  0  0  0  0  0  0  0  0  0  0
  -50.5091    1.5877  -24.0902 C   0  0  0  0  0  0  0  0  0  0  0  0
  -52.1861   -0.0215  -24.7291 C   0  0  0  0  0  0  0  0  0  0  0  0
  -50.4215    2.0055  -25.4793 C   0  0  0  0  0  0  0  0  0  0  0  0
  -52.1197    0.3711  -26.0141 C   0  0  0  0  0  0  0  0  0  0  0  0
  -51.1959    1.4249  -26.4167 C   0  0  0  0  0  0  0  0  0  0  0  0
  -51.1654    1.8041  -27.8649 C   0  0  0  0  0  0  0  0  0  0  0  0
  -50.8827    2.0925  -17.2107 C   0  0  0  0  0  0  0  0  0  0  0  0
  -51.3539    3.1338  -16.7838 O   0  0  0  0  0  0  0  0  0  0  0  0
  -50.2189    1.1634  -16.4793 O   0  0  0  0  0  0  0  0  0  0  0  0
  -50.0903    1.5461  -15.1121 C   0  0  0  0  0  0  0  0  0  0  0  0
  -52.9265    1.8355  -21.3018 H   0  0  0  0  0  0  0  0  0  0  0  0
  -49.1453    0.0501  -20.9606 H   0  0  0  0  0  0  0  0  0  0  0  0
  -52.8831    2.3366  -18.8629 H   0  0  0  0  0  0  0  0  0  0  0  0
  -48.9669    0.7807  -18.7098 H   0  0  0  0  0  0  0  0  0  0  0  0
  -51.3989   -0.9509  -22.3763 H   0  0  0  0  0  0  0  0  0  0  0  0
  -49.9311    2.0646  -23.3806 H   0  0  0  0  0  0  0  0  0  0  0  0
  -52.8497   -0.7639  -24.4579 H   0  0  0  0  0  0  0  0  0  0  0  0
  -49.7619    2.7517  -25.7496 H   0  0  0  0  0  0  0  0  0  0  0  0
  -52.7262   -0.0762  -26.7191 H   0  0  0  0  0  0  0  0  0  0  0  0
  -50.4478    2.5835  -28.0145 H   0  0  0  0  0  0  0  0  0  0  0  0
  -52.1334    2.1483  -28.1639 H   0  0  0  0  0  0  0  0  0  0  0  0
  -50.8932    0.9514  -28.4512 H   0  0  0  0  0  0  0  0  0  0  0  0
  -49.5619    0.7850  -14.5769 H   0  0  0  0  0  0  0  0  0  0  0  0
  -51.0628    1.6732  -14.6843 H   0  0  0  0  0  0  0  0  0  0  0  0
  -49.5496    2.4673  -15.0489 H   0  0  0  0  0  0  0  0  0  0  0  0
  1  3  1  0  0  0  0
  2  1  2  0  0  0  0
  2 19  1  0  0  0  0
  3  5  2  0  0  0  0
  3 20  1  0  0  0  0
  4  2  1  0  0  0  0
  4 21  1  0  0  0  0
  5  6  1  0  0  0  0
  5 22  1  0  0  0  0
  6  4  2  0  0  0  0
  7  8  1  0  0  0  0
  7  1  1  0  0  0  0
  7 23  1  0  0  0  0
  8  9  2  0  0  0  0
  9 11  1  0  0  0  0
  9 24  1  0  0  0  0
 10  8  1  0  0  0  0
 10 25  1  0  0  0  0
 11 13  2  0  0  0  0
 11 26  1  0  0  0  0
 12 10  2  0  0  0  0
 12 27  1  0  0  0  0
 13 12  1  0  0  0  0
 13 14  1  0  0  0  0
 14 28  1  0  0  0  0
 14 29  1  0  0  0  0
 14 30  1  0  0  0  0
 15  6  1  0  0  0  0
 15 17  1  0  0  0  0
 15 16  2  0  0  0  0
 17 18  1  0  0  0  0
 18 31  1  0  0  0  0
 18 32  1  0  0  0  0
 18 33  1  0  0  0  0
M  END
>  <minimizedAffinity>
-7.33254

$$$$

 OpenBabel07052409263D

 30 31  0  0  0  0  0  0  0  0999 V2000
  -50.5459    0.3853  -23.0918 C   0  0  0  0  0  0  0  0  0  0  0  0
  -51.8055    0.8076  -22.8471 C   0  0  0  0  0  0  0  0  0  0  0  0
  -49.6718    0.1320  -21.9475 C   0  0  0  0  0  0  0  0  0  0  0  0
  -52.1962    1.2572  -21.5179 C   0  0  0  0  0  0  0  0  0  0  0  0
  -50.0323    0.5146  -20.7088 C   0  0  0  0  0  0  0  0  0  0  0  0
  -51.3097    1.1782  -20.5071 C   0  0  0  0  0  0  0  0  0  0  0  0
  -49.9612    0.3400  -24.3462 N   0  0  0  0  0  0  0  0  0  0  0  0
  -50.4991    0.9863  -25.4556 C   0  0  0  0  0  0  0  0  0  0  0  0
  -50.4934    2.3314  -25.5862 C   0  0  0  0  0  0  0  0  0  0  0  0
  -51.0940    0.2018  -26.5531 C   0  0  0  0  0  0  0  0  0  0  0  0
  -50.7638    2.9592  -26.8675 C   0  0  0  0  0  0  0  0  0  0  0  0
  -51.4240    0.7935  -27.7168 C   0  0  0  0  0  0  0  0  0  0  0  0
  -51.3945   -1.4867  -26.3282 Cl  0  0  0  0  0  0  0  0  0  0  0  0
  -51.2115    2.2186  -27.8953 C   0  0  0  0  0  0  0  0  0  0  0  0
  -51.6521    1.8188  -19.2222 C   0  0  0  0  0  0  0  0  0  0  0  0
  -52.4472    2.7354  -19.0941 O   0  0  0  0  0  0  0  0  0  0  0  0
  -50.9629    1.2229  -18.2183 O   0  0  0  0  0  0  0  0  0  0  0  0
  -50.8483    2.0642  -17.0738 C   0  0  0  0  0  0  0  0  0  0  0  0
  -52.4993    0.8117  -23.6111 H   0  0  0  0  0  0  0  0  0  0  0  0
  -48.7683   -0.3455  -22.0914 H   0  0  0  0  0  0  0  0  0  0  0  0
  -53.1431    1.6326  -21.3523 H   0  0  0  0  0  0  0  0  0  0  0  0
  -49.4062    0.3381  -19.9076 H   0  0  0  0  0  0  0  0  0  0  0  0
  -49.1279   -0.1721  -24.4585 H   0  0  0  0  0  0  0  0  0  0  0  0
  -50.2939    2.9212  -24.7632 H   0  0  0  0  0  0  0  0  0  0  0  0
  -50.6123    3.9728  -26.9884 H   0  0  0  0  0  0  0  0  0  0  0  0
  -51.8286    0.2331  -28.4831 H   0  0  0  0  0  0  0  0  0  0  0  0
  -51.4035    2.6609  -28.8077 H   0  0  0  0  0  0  0  0  0  0  0  0
  -50.2991    1.5545  -16.3100 H   0  0  0  0  0  0  0  0  0  0  0  0
  -51.8249    2.3061  -16.7097 H   0  0  0  0  0  0  0  0  0  0  0  0
  -50.3349    2.9637  -17.3423 H   0  0  0  0  0  0  0  0  0  0  0  0
  1  3  1  0  0  0  0
  2  1  2  0  0  0  0
  2 19  1  0  0  0  0
  3  5  2  0  0  0  0
  3 20  1  0  0  0  0
  4  2  1  0  0  0  0
  4 21  1  0  0  0  0
  5  6  1  0  0  0  0
  5 22  1  0  0  0  0
  6  4  2  0  0  0  0
  7  8  1  0  0  0  0
  7  1  1  0  0  0  0
  7 23  1  0  0  0  0
  8  9  2  0  0  0  0
  9 11  1  0  0  0  0
  9 24  1  0  0  0  0
 10  8  1  0  0  0  0
 10 13  1  0  0  0  0
 11 14  2  0  0  0  0
 11 25  1  0  0  0  0
 12 10  2  0  0  0  0
 12 26  1  0  0  0  0
 14 12  1  0  0  0  0
 14 27  1  0  0  0  0
 15  6  1  0  0  0  0
 15 17  1  0  0  0  0
 15 16  2  0  0  0  0
 17 18  1  0  0  0  0
 18 28  1  0  0  0  0
 18 29  1  0  0  0  0
 18 30  1  0  0  0  0
M  END
>  <minimizedAffinity>
-7.21788

$$$$

 OpenBabel07052409263D

 30 31  0  0  0  0  0  0  0  0999 V2000
  -51.1956   -0.0633  -22.1714 N   0  0  0  0  0  0  0  0  0  0  0  0
  -51.0216    0.6808  -21.0093 C   0  0  0  0  0  0  0  0  0  0  0  0
  -49.9271    0.5594  -20.2261 C   0  0  0  0  0  0  0  0  0  0  0  0
  -52.0691    1.6187  -20.5663 C   0  0  0  0  0  0  0  0  0  0  0  0
  -49.9397    1.0362  -18.8534 C   0  0  0  0  0  0  0  0  0  0  0  0
  -52.0433    2.1386  -19.3244 C   0  0  0  0  0  0  0  0  0  0  0  0
  -53.3225    2.0743  -21.6673 Cl  0  0  0  0  0  0  0  0  0  0  0  0
  -50.9612    1.7947  -18.4210 C   0  0  0  0  0  0  0  0  0  0  0  0
  -51.0109    2.3939  -16.8097 Cl  0  0  0  0  0  0  0  0  0  0  0  0
  -51.2628    0.5092  -23.4306 C   0  0  0  0  0  0  0  0  0  0  0  0
  -50.4062    1.4439  -23.8966 C   0  0  0  0  0  0  0  0  0  0  0  0
  -52.2395   -0.0568  -24.3602 C   0  0  0  0  0  0  0  0  0  0  0  0
  -50.3258    1.7426  -25.3181 C   0  0  0  0  0  0  0  0  0  0  0  0
  -52.2227    0.2695  -25.6656 C   0  0  0  0  0  0  0  0  0  0  0  0
  -51.2310    1.2099  -26.1606 C   0  0  0  0  0  0  0  0  0  0  0  0
  -51.1524    1.5564  -27.5934 C   0  0  0  0  0  0  0  0  0  0  0  0
  -51.0847    0.7456  -28.5023 O   0  0  0  0  0  0  0  0  0  0  0  0
  -51.1592    2.9051  -27.7321 O   0  0  0  0  0  0  0  0  0  0  0  0
  -52.2158    3.3539  -28.5769 C   0  0  0  0  0  0  0  0  0  0  0  0
  -51.2746   -1.0417  -22.0954 H   0  0  0  0  0  0  0  0  0  0  0  0
  -49.0729    0.1233  -20.6070 H   0  0  0  0  0  0  0  0  0  0  0  0
  -49.1674    0.7933  -18.2134 H   0  0  0  0  0  0  0  0  0  0  0  0
  -52.7909    2.7797  -19.0161 H   0  0  0  0  0  0  0  0  0  0  0  0
  -49.8001    1.9534  -23.2347 H   0  0  0  0  0  0  0  0  0  0  0  0
  -52.9520   -0.7161  -24.0100 H   0  0  0  0  0  0  0  0  0  0  0  0
  -49.5802    2.3585  -25.6783 H   0  0  0  0  0  0  0  0  0  0  0  0
  -52.9110   -0.1462  -26.3125 H   0  0  0  0  0  0  0  0  0  0  0  0
  -52.1807    4.4204  -28.6559 H   0  0  0  0  0  0  0  0  0  0  0  0
  -53.1558    3.0579  -28.1602 H   0  0  0  0  0  0  0  0  0  0  0  0
  -52.1041    2.9204  -29.5487 H   0  0  0  0  0  0  0  0  0  0  0  0
  1  2  1  0  0  0  0
  1 10  1  0  0  0  0
  1 20  1  0  0  0  0
  2  3  2  0  0  0  0
  3  5  1  0  0  0  0
  3 21  1  0  0  0  0
  4  2  1  0  0  0  0
  4  7  1  0  0  0  0
  5  8  2  0  0  0  0
  5 22  1  0  0  0  0
  6  4  2  0  0  0  0
  6 23  1  0  0  0  0
  8  6  1  0  0  0  0
  8  9  1  0  0  0  0
 10 12  1  0  0  0  0
 11 10  2  0  0  0  0
 11 24  1  0  0  0  0
 12 14  2  0  0  0  0
 12 25  1  0  0  0  0
 13 11  1  0  0  0  0
 13 26  1  0  0  0  0
 14 15  1  0  0  0  0
 14 27  1  0  0  0  0
 15 13  2  0  0  0  0
 16 15  1  0  0  0  0
 16 18  1  0  0  0  0
 16 17  2  0  0  0  0
 18 19  1  0  0  0  0
 19 28  1  0  0  0  0
 19 29  1  0  0  0  0
 19 30  1  0  0  0  0
M  END
>  <minimizedAffinity>
-7.55940

$$$$

 OpenBabel07052409263D

 30 31  0  0  0  0  0  0  0  0999 V2000
  -51.0261    0.7760  -21.1227 C   0  0  0  0  0  0  0  0  0  0  0  0
  -49.9061    0.6353  -20.3811 C   0  0  0  0  0  0  0  0  0  0  0  0
  -52.1167    1.5791  -20.5703 C   0  0  0  0  0  0  0  0  0  0  0  0
  -49.8901    1.0156  -18.9769 C   0  0  0  0  0  0  0  0  0  0  0  0
  -52.0745    2.0216  -19.3002 C   0  0  0  0  0  0  0  0  0  0  0  0
  -50.9194    1.7203  -18.4699 C   0  0  0  0  0  0  0  0  0  0  0  0
  -51.2970    0.0715  -22.2805 N   0  0  0  0  0  0  0  0  0  0  0  0
  -51.3387    0.6419  -23.5387 C   0  0  0  0  0  0  0  0  0  0  0  0
  -50.5329    1.6454  -23.9480 C   0  0  0  0  0  0  0  0  0  0  0  0
  -52.2056    0.0076  -24.5311 C   0  0  0  0  0  0  0  0  0  0  0  0
  -50.4120    1.9805  -25.3583 C   0  0  0  0  0  0  0  0  0  0  0  0
  -52.1292    0.3424  -25.8323 C   0  0  0  0  0  0  0  0  0  0  0  0
  -51.1835    1.3543  -26.2634 C   0  0  0  0  0  0  0  0  0  0  0  0
  -51.0825    1.7298  -27.9389 Cl  0  0  0  0  0  0  0  0  0  0  0  0
  -50.8625    2.1301  -17.0526 C   0  0  0  0  0  0  0  0  0  0  0  0
  -51.3401    3.1598  -16.6057 O   0  0  0  0  0  0  0  0  0  0  0  0
  -50.1896    1.1935  -16.3396 O   0  0  0  0  0  0  0  0  0  0  0  0
  -50.0940    1.5345  -14.9590 C   0  0  0  0  0  0  0  0  0  0  0  0
  -49.0515    0.2535  -20.8157 H   0  0  0  0  0  0  0  0  0  0  0  0
  -52.9297    1.8095  -21.1628 H   0  0  0  0  0  0  0  0  0  0  0  0
  -49.0963    0.7475  -18.3743 H   0  0  0  0  0  0  0  0  0  0  0  0
  -52.8586    2.5724  -18.9170 H   0  0  0  0  0  0  0  0  0  0  0  0
  -51.4707   -0.8946  -22.2044 H   0  0  0  0  0  0  0  0  0  0  0  0
  -49.9950    2.1824  -23.2499 H   0  0  0  0  0  0  0  0  0  0  0  0
  -52.8859   -0.7072  -24.2291 H   0  0  0  0  0  0  0  0  0  0  0  0
  -49.7353    2.6975  -25.6633 H   0  0  0  0  0  0  0  0  0  0  0  0
  -52.7422   -0.1198  -26.5220 H   0  0  0  0  0  0  0  0  0  0  0  0
  -49.5570    0.7690  -14.4389 H   0  0  0  0  0  0  0  0  0  0  0  0
  -51.0765    1.6250  -14.5451 H   0  0  0  0  0  0  0  0  0  0  0  0
  -49.5767    2.4655  -14.8566 H   0  0  0  0  0  0  0  0  0  0  0  0
  1  3  1  0  0  0  0
  2  1  2  0  0  0  0
  2 19  1  0  0  0  0
  3  5  2  0  0  0  0
  3 20  1  0  0  0  0
  4  2  1  0  0  0  0
  4 21  1  0  0  0  0
  5  6  1  0  0  0  0
  5 22  1  0  0  0  0
  6  4  2  0  0  0  0
  7  8  1  0  0  0  0
  7  1  1  0  0  0  0
  7 23  1  0  0  0  0
  8  9  2  0  0  0  0
  9 11  1  0  0  0  0
  9 24  1  0  0  0  0
 10  8  1  0  0  0  0
 10 25  1  0  0  0  0
 11 13  2  0  0  0  0
 11 26  1  0  0  0  0
 12 10  2  0  0  0  0
 12 27  1  0  0  0  0
 13 12  1  0  0  0  0
 13 14  1  0  0  0  0
 15  6  1  0  0  0  0
 15 17  1  0  0  0  0
 15 16  2  0  0  0  0
 17 18  1  0  0  0  0
 18 28  1  0  0  0  0
 18 29  1  0  0  0  0
 18 30  1  0  0  0  0
M  END
>  <minimizedAffinity>
-7.26544

$$$$

 OpenBabel07052409263D

 31 32  0  0  0  0  0  0  0  0999 V2000
  -51.6548    0.6518  -21.0171 N   0  0  0  0  0  0  0  0  0  0  0  0
  -50.8574    0.8101  -19.8871 C   0  0  0  0  0  0  0  0  0  0  0  0
  -49.7331    0.1083  -19.6315 C   0  0  0  0  0  0  0  0  0  0  0  0
  -51.3389    1.7486  -18.8623 C   0  0  0  0  0  0  0  0  0  0  0  0
  -49.0475    0.2285  -18.3538 C   0  0  0  0  0  0  0  0  0  0  0  0
  -50.6987    1.8832  -17.6829 C   0  0  0  0  0  0  0  0  0  0  0  0
  -52.4770    2.4572  -19.1935 O   0  0  0  0  0  0  0  0  0  0  0  0
  -47.5290   -0.8177  -18.0775 Br  0  0  0  0  0  0  0  0  0  0  0  0
  -49.5096    1.0830  -17.4230 C   0  0  0  0  0  0  0  0  0  0  0  0
  -51.2541    3.0483  -16.3328 Br  0  0  0  0  0  0  0  0  0  0  0  0
  -51.1409    0.3588  -22.2705 C   0  0  0  0  0  0  0  0  0  0  0  0
  -51.0587   -0.8909  -22.7769 C   0  0  0  0  0  0  0  0  0  0  0  0
  -50.8915    1.4764  -23.1819 C   0  0  0  0  0  0  0  0  0  0  0  0
  -51.1384   -1.1116  -24.2152 C   0  0  0  0  0  0  0  0  0  0  0  0
  -50.8958    1.2841  -24.5141 C   0  0  0  0  0  0  0  0  0  0  0  0
  -51.1308   -0.0494  -25.0439 C   0  0  0  0  0  0  0  0  0  0  0  0
  -51.3864   -0.2766  -26.4798 C   0  0  0  0  0  0  0  0  0  0  0  0
  -51.0703   -1.2860  -27.0878 O   0  0  0  0  0  0  0  0  0  0  0  0
  -52.0078    0.8065  -27.0069 O   0  0  0  0  0  0  0  0  0  0  0  0
  -51.1883    1.4917  -27.9507 C   0  0  0  0  0  0  0  0  0  0  0  0
  -52.6294    0.7527  -20.9215 H   0  0  0  0  0  0  0  0  0  0  0  0
  -49.3537   -0.5236  -20.3538 H   0  0  0  0  0  0  0  0  0  0  0  0
  -52.8841    2.3266  -20.0273 H   0  0  0  0  0  0  0  0  0  0  0  0
  -49.0187    1.1721  -16.5196 H   0  0  0  0  0  0  0  0  0  0  0  0
  -50.9387   -1.6947  -22.1409 H   0  0  0  0  0  0  0  0  0  0  0  0
  -50.7111    2.4183  -22.8006 H   0  0  0  0  0  0  0  0  0  0  0  0
  -51.1999   -2.0695  -24.5942 H   0  0  0  0  0  0  0  0  0  0  0  0
  -50.7336    2.0770  -25.1545 H   0  0  0  0  0  0  0  0  0  0  0  0
  -51.7197    2.3359  -28.3379 H   0  0  0  0  0  0  0  0  0  0  0  0
  -50.9379    0.8293  -28.7529 H   0  0  0  0  0  0  0  0  0  0  0  0
  -50.2921    1.8242  -27.4698 H   0  0  0  0  0  0  0  0  0  0  0  0
  1  2  1  0  0  0  0
  1 11  1  0  0  0  0
  1 21  1  0  0  0  0
  2  3  2  0  0  0  0
  3  5  1  0  0  0  0
  3 22  1  0  0  0  0
  4  2  1  0  0  0  0
  4  7  1  0  0  0  0
  5  8  1  0  0  0  0
  5  9  2  0  0  0  0
  6  4  2  0  0  0  0
  6 10  1  0  0  0  0
  7 23  1  0  0  0  0
  9  6  1  0  0  0  0
  9 24  1  0  0  0  0
 11 13  1  0  0  0  0
 12 11  2  0  0  0  0
 12 25  1  0  0  0  0
 13 15  2  0  0  0  0
 13 26  1  0  0  0  0
 14 12  1  0  0  0  0
 14 27  1  0  0  0  0
 15 16  1  0  0  0  0
 15 28  1  0  0  0  0
 16 14  2  0  0  0  0
 17 16  1  0  0  0  0
 17 19  1  0  0  0  0
 17 18  2  0  0  0  0
 19 20  1  0  0  0  0
 20 29  1  0  0  0  0
 20 30  1  0  0  0  0
 20 31  1  0  0  0  0
M  END
>  <minimizedAffinity>
-7.56687

$$$$

 OpenBabel07052409263D

 30 31  0  0  0  0  0  0  0  0999 V2000
  -51.2438    0.5054  -23.4205 C   0  0  0  0  0  0  0  0  0  0  0  0
  -50.2596    1.2792  -23.9263 C   0  0  0  0  0  0  0  0  0  0  0  0
  -52.3022    0.0525  -24.3253 C   0  0  0  0  0  0  0  0  0  0  0  0
  -50.1702    1.5446  -25.3533 C   0  0  0  0  0  0  0  0  0  0  0  0
  -52.2650    0.3533  -25.6366 C   0  0  0  0  0  0  0  0  0  0  0  0
  -51.1688    1.1488  -26.1647 C   0  0  0  0  0  0  0  0  0  0  0  0
  -51.2307    0.0213  -22.1260 N   0  0  0  0  0  0  0  0  0  0  0  0
  -51.0889    0.8159  -21.0051 C   0  0  0  0  0  0  0  0  0  0  0  0
  -52.0376    1.6475  -20.5256 C   0  0  0  0  0  0  0  0  0  0  0  0
  -49.9045    0.5884  -20.1806 C   0  0  0  0  0  0  0  0  0  0  0  0
  -52.0288    2.0588  -19.1305 C   0  0  0  0  0  0  0  0  0  0  0  0
  -49.8514    1.0314  -18.9107 C   0  0  0  0  0  0  0  0  0  0  0  0
  -50.9739    1.7660  -18.3472 C   0  0  0  0  0  0  0  0  0  0  0  0
  -50.8814    2.2793  -16.5593 Br  0  0  0  0  0  0  0  0  0  0  0  0
  -51.1154    1.5357  -27.5883 C   0  0  0  0  0  0  0  0  0  0  0  0
  -51.0797    0.7505  -28.5214 O   0  0  0  0  0  0  0  0  0  0  0  0
  -51.1350    2.8874  -27.6911 O   0  0  0  0  0  0  0  0  0  0  0  0
  -52.1970    3.3468  -28.5233 C   0  0  0  0  0  0  0  0  0  0  0  0
  -49.5588    1.6893  -23.2893 H   0  0  0  0  0  0  0  0  0  0  0  0
  -53.0869   -0.5046  -23.9527 H   0  0  0  0  0  0  0  0  0  0  0  0
  -49.3476    2.0326  -25.7409 H   0  0  0  0  0  0  0  0  0  0  0  0
  -53.0125    0.0202  -26.2654 H   0  0  0  0  0  0  0  0  0  0  0  0
  -51.3284   -0.9495  -21.9948 H   0  0  0  0  0  0  0  0  0  0  0  0
  -52.7773    1.9953  -21.1556 H   0  0  0  0  0  0  0  0  0  0  0  0
  -49.0979    0.0813  -20.5771 H   0  0  0  0  0  0  0  0  0  0  0  0
  -52.8324    2.5758  -18.7406 H   0  0  0  0  0  0  0  0  0  0  0  0
  -49.0136    0.8498  -18.3361 H   0  0  0  0  0  0  0  0  0  0  0  0
  -52.1731    4.4153  -28.5748 H   0  0  0  0  0  0  0  0  0  0  0  0
  -53.1335    3.0303  -28.1138 H   0  0  0  0  0  0  0  0  0  0  0  0
  -52.0817    2.9397  -29.5061 H   0  0  0  0  0  0  0  0  0  0  0  0
  1  3  1  0  0  0  0
  2  1  2  0  0  0  0
  2 19  1  0  0  0  0
  3  5  2  0  0  0  0
  3 20  1  0  0  0  0
  4  2  1  0  0  0  0
  4 21  1  0  0  0  0
  5  6  1  0  0  0  0
  5 22  1  0  0  0  0
  6  4  2  0  0  0  0
  7  8  1  0  0  0  0
  7  1  1  0  0  0  0
  7 23  1  0  0  0  0
  8  9  2  0  0  0  0
  9 11  1  0  0  0  0
  9 24  1  0  0  0  0
 10  8  1  0  0  0  0
 10 25  1  0  0  0  0
 11 13  2  0  0  0  0
 11 26  1  0  0  0  0
 12 10  2  0  0  0  0
 12 27  1  0  0  0  0
 13 12  1  0  0  0  0
 13 14  1  0  0  0  0
 15  6  1  0  0  0  0
 15 17  1  0  0  0  0
 15 16  2  0  0  0  0
 17 18  1  0  0  0  0
 18 28  1  0  0  0  0
 18 29  1  0  0  0  0
 18 30  1  0  0  0  0
M  END
>  <minimizedAffinity>
-7.10172

$$$$

 OpenBabel07052409263D

 31 32  0  0  0  0  0  0  0  0999 V2000
  -50.3189   -0.7556  -24.1901 N   0  0  0  0  0  0  0  0  0  0  0  0
  -50.5046   -0.0030  -25.3450 C   0  0  0  0  0  0  0  0  0  0  0  0
  -50.0957    1.2729  -25.5174 C   0  0  0  0  0  0  0  0  0  0  0  0
  -51.3263   -0.6059  -26.4030 C   0  0  0  0  0  0  0  0  0  0  0  0
  -50.5420    2.0542  -26.6604 C   0  0  0  0  0  0  0  0  0  0  0  0
  -51.7152    0.1013  -27.4754 C   0  0  0  0  0  0  0  0  0  0  0  0
  -51.6853   -1.9237  -26.2288 O   0  0  0  0  0  0  0  0  0  0  0  0
  -51.3161    1.4903  -27.6040 C   0  0  0  0  0  0  0  0  0  0  0  0
  -50.8390   -0.3950  -22.9579 C   0  0  0  0  0  0  0  0  0  0  0  0
  -50.2762   -0.7252  -21.7753 C   0  0  0  0  0  0  0  0  0  0  0  0
  -51.9330    0.5769  -22.9413 C   0  0  0  0  0  0  0  0  0  0  0  0
  -50.4655    0.1192  -20.6055 C   0  0  0  0  0  0  0  0  0  0  0  0
  -52.1965    1.2953  -21.8342 C   0  0  0  0  0  0  0  0  0  0  0  0
  -51.4059    1.0831  -20.6319 C   0  0  0  0  0  0  0  0  0  0  0  0
  -51.5565    1.9540  -19.4489 C   0  0  0  0  0  0  0  0  0  0  0  0
  -52.4479    2.7724  -19.2952 O   0  0  0  0  0  0  0  0  0  0  0  0
  -50.5603    1.6896  -18.5680 O   0  0  0  0  0  0  0  0  0  0  0  0
  -50.9333    1.9894  -17.2253 C   0  0  0  0  0  0  0  0  0  0  0  0
  -49.7921   -1.5850  -24.2514 H   0  0  0  0  0  0  0  0  0  0  0  0
  -49.4572    1.6997  -24.8280 H   0  0  0  0  0  0  0  0  0  0  0  0
  -50.2636    3.0441  -26.7472 H   0  0  0  0  0  0  0  0  0  0  0  0
  -52.2955   -0.3409  -28.2053 H   0  0  0  0  0  0  0  0  0  0  0  0
  -51.3980   -2.3910  -25.4692 H   0  0  0  0  0  0  0  0  0  0  0  0
  -51.6257    2.0441  -28.4179 H   0  0  0  0  0  0  0  0  0  0  0  0
  -49.7075   -1.5831  -21.7008 H   0  0  0  0  0  0  0  0  0  0  0  0
  -52.5083    0.7128  -23.7872 H   0  0  0  0  0  0  0  0  0  0  0  0
  -49.8848   -0.0191  -19.7637 H   0  0  0  0  0  0  0  0  0  0  0  0
  -52.9562    1.9937  -21.8383 H   0  0  0  0  0  0  0  0  0  0  0  0
  -50.1177    1.7650  -16.5700 H   0  0  0  0  0  0  0  0  0  0  0  0
  -51.7835    1.4003  -16.9513 H   0  0  0  0  0  0  0  0  0  0  0  0
  -51.1787    3.0279  -17.1467 H   0  0  0  0  0  0  0  0  0  0  0  0
  1  2  1  0  0  0  0
  1  9  1  0  0  0  0
  1 19  1  0  0  0  0
  2  3  2  0  0  0  0
  3  5  1  0  0  0  0
  3 20  1  0  0  0  0
  4  2  1  0  0  0  0
  4  7  1  0  0  0  0
  5  8  2  0  0  0  0
  5 21  1  0  0  0  0
  6  4  2  0  0  0  0
  6 22  1  0  0  0  0
  7 23  1  0  0  0  0
  8  6  1  0  0  0  0
  8 24  1  0  0  0  0
  9 11  1  0  0  0  0
 10  9  2  0  0  0  0
 10 25  1  0  0  0  0
 11 13  2  0  0  0  0
 11 26  1  0  0  0  0
 12 10  1  0  0  0  0
 12 27  1  0  0  0  0
 13 14  1  0  0  0  0
 13 28  1  0  0  0  0
 14 12  2  0  0  0  0
 15 14  1  0  0  0  0
 15 17  1  0  0  0  0
 15 16  2  0  0  0  0
 17 18  1  0  0  0  0
 18 29  1  0  0  0  0
 18 30  1  0  0  0  0
 18 31  1  0  0  0  0
M  END
>  <minimizedAffinity>
-7.12847

$$$$

 OpenBabel07052409263D

 34 35  0  0  0  0  0  0  0  0999 V2000
  -50.9991   -0.0721  -22.6253 N   0  0  0  0  0  0  0  0  0  0  0  0
  -51.0004    0.6731  -23.8009 C   0  0  0  0  0  0  0  0  0  0  0  0
  -50.4286    1.8886  -23.9256 C   0  0  0  0  0  0  0  0  0  0  0  0
  -51.7219    0.1349  -24.9616 C   0  0  0  0  0  0  0  0  0  0  0  0
  -50.3546    2.5531  -25.2155 C   0  0  0  0  0  0  0  0  0  0  0  0
  -51.7021    0.7712  -26.1476 C   0  0  0  0  0  0  0  0  0  0  0  0
  -52.4093   -1.0391  -24.7353 O   0  0  0  0  0  0  0  0  0  0  0  0
  -50.9649    2.0235  -26.2942 C   0  0  0  0  0  0  0  0  0  0  0  0
  -50.9336    2.6557  -27.6509 C   0  0  0  0  0  0  0  0  0  0  0  0
  -50.8648    0.5088  -21.3744 C   0  0  0  0  0  0  0  0  0  0  0  0
  -49.7410    0.4680  -20.6261 C   0  0  0  0  0  0  0  0  0  0  0  0
  -52.0670    1.0993  -20.7877 C   0  0  0  0  0  0  0  0  0  0  0  0
  -49.7460    0.9072  -19.2396 C   0  0  0  0  0  0  0  0  0  0  0  0
  -52.0664    1.5597  -19.5234 C   0  0  0  0  0  0  0  0  0  0  0  0
  -50.8514    1.4816  -18.7290 C   0  0  0  0  0  0  0  0  0  0  0  0
  -50.8036    2.0046  -17.3496 C   0  0  0  0  0  0  0  0  0  0  0  0
  -51.3553    3.0255  -16.9733 O   0  0  0  0  0  0  0  0  0  0  0  0
  -50.0631    1.1731  -16.5754 O   0  0  0  0  0  0  0  0  0  0  0  0
  -50.0746    1.5632  -15.2048 C   0  0  0  0  0  0  0  0  0  0  0  0
  -51.0974   -1.0499  -22.6848 H   0  0  0  0  0  0  0  0  0  0  0  0
  -50.0375    2.3538  -23.0915 H   0  0  0  0  0  0  0  0  0  0  0  0
  -49.8306    3.4375  -25.3065 H   0  0  0  0  0  0  0  0  0  0  0  0
  -52.2084    0.3737  -26.9543 H   0  0  0  0  0  0  0  0  0  0  0  0
  -52.3878   -1.4387  -23.8881 H   0  0  0  0  0  0  0  0  0  0  0  0
  -50.3625    3.5596  -27.6101 H   0  0  0  0  0  0  0  0  0  0  0  0
  -51.9323    2.8786  -27.9637 H   0  0  0  0  0  0  0  0  0  0  0  0
  -50.4836    1.9807  -28.3486 H   0  0  0  0  0  0  0  0  0  0  0  0
  -48.8646    0.1195  -21.0450 H   0  0  0  0  0  0  0  0  0  0  0  0
  -52.9288    1.1639  -21.3518 H   0  0  0  0  0  0  0  0  0  0  0  0
  -48.9079    0.7794  -18.6512 H   0  0  0  0  0  0  0  0  0  0  0  0
  -52.9246    1.9664  -19.1195 H   0  0  0  0  0  0  0  0  0  0  0  0
  -49.4795    0.8807  -14.6347 H   0  0  0  0  0  0  0  0  0  0  0  0
  -51.0801    1.5512  -14.8390 H   0  0  0  0  0  0  0  0  0  0  0  0
  -49.6729    2.5505  -15.1116 H   0  0  0  0  0  0  0  0  0  0  0  0
  1  2  1  0  0  0  0
  1 10  1  0  0  0  0
  1 20  1  0  0  0  0
  2  3  2  0  0  0  0
  3  5  1  0  0  0  0
  3 21  1  0  0  0  0
  4  2  1  0  0  0  0
  4  7  1  0  0  0  0
  5  8  2  0  0  0  0
  5 22  1  0  0  0  0
  6  4  2  0  0  0  0
  6 23  1  0  0  0  0
  7 24  1  0  0  0  0
  8  6  1  0  0  0  0
  8  9  1  0  0  0  0
  9 25  1  0  0  0  0
  9 26  1  0  0  0  0
  9 27  1  0  0  0  0
 10 12  1  0  0  0  0
 11 10  2  0  0  0  0
 11 28  1  0  0  0  0
 12 14  2  0  0  0  0
 12 29  1  0  0  0  0
 13 11  1  0  0  0  0
 13 30  1  0  0  0  0
 14 15  1  0  0  0  0
 14 31  1  0  0  0  0
 15 13  2  0  0  0  0
 16 15  1  0  0  0  0
 16 18  1  0  0  0  0
 16 17  2  0  0  0  0
 18 19  1  0  0  0  0
 19 32  1  0  0  0  0
 19 33  1  0  0  0  0
 19 34  1  0  0  0  0
M  END
>  <minimizedAffinity>
-7.30613

$$$$

 OpenBabel07052409263D

 30 31  0  0  0  0  0  0  0  0999 V2000
  -50.0930   -0.1345  -22.6862 C   0  0  0  0  0  0  0  0  0  0  0  0
  -49.3730   -0.0614  -21.5456 C   0  0  0  0  0  0  0  0  0  0  0  0
  -51.4191    0.4819  -22.7082 C   0  0  0  0  0  0  0  0  0  0  0  0
  -49.8343    0.7345  -20.4189 C   0  0  0  0  0  0  0  0  0  0  0  0
  -51.8873    1.1553  -21.6415 C   0  0  0  0  0  0  0  0  0  0  0  0
  -51.0733    1.2606  -20.4417 C   0  0  0  0  0  0  0  0  0  0  0  0
  -49.6180   -0.6396  -23.8849 N   0  0  0  0  0  0  0  0  0  0  0  0
  -50.2276   -0.3750  -25.1055 C   0  0  0  0  0  0  0  0  0  0  0  0
  -50.9392   -1.2921  -25.7963 C   0  0  0  0  0  0  0  0  0  0  0  0
  -50.1733    0.9872  -25.6429 C   0  0  0  0  0  0  0  0  0  0  0  0
  -51.5884   -0.9505  -27.0522 C   0  0  0  0  0  0  0  0  0  0  0  0
  -50.7803    1.3141  -26.7950 C   0  0  0  0  0  0  0  0  0  0  0  0
  -49.5003    1.9254  -24.9428 F   0  0  0  0  0  0  0  0  0  0  0  0
  -51.5122    0.3023  -27.5341 C   0  0  0  0  0  0  0  0  0  0  0  0
  -51.5762    1.9301  -19.2259 C   0  0  0  0  0  0  0  0  0  0  0  0
  -52.5262    2.6953  -19.1957 O   0  0  0  0  0  0  0  0  0  0  0  0
  -50.8317    1.5504  -18.1584 O   0  0  0  0  0  0  0  0  0  0  0  0
  -51.0490    2.3895  -17.0272 C   0  0  0  0  0  0  0  0  0  0  0  0
  -48.4825   -0.5779  -21.4725 H   0  0  0  0  0  0  0  0  0  0  0  0
  -52.0043    0.3992  -23.5542 H   0  0  0  0  0  0  0  0  0  0  0  0
  -49.2164    0.8947  -19.6080 H   0  0  0  0  0  0  0  0  0  0  0  0
  -52.8203    1.5951  -21.6750 H   0  0  0  0  0  0  0  0  0  0  0  0
  -48.8154   -1.2096  -23.8719 H   0  0  0  0  0  0  0  0  0  0  0  0
  -51.0237   -2.2519  -25.4265 H   0  0  0  0  0  0  0  0  0  0  0  0
  -52.1091   -1.6720  -27.5750 H   0  0  0  0  0  0  0  0  0  0  0  0
  -50.7266    2.2804  -27.1532 H   0  0  0  0  0  0  0  0  0  0  0  0
  -51.9723    0.5434  -28.4259 H   0  0  0  0  0  0  0  0  0  0  0  0
  -50.4429    2.0532  -16.2120 H   0  0  0  0  0  0  0  0  0  0  0  0
  -52.0804    2.3484  -16.7455 H   0  0  0  0  0  0  0  0  0  0  0  0
  -50.7868    3.3969  -17.2748 H   0  0  0  0  0  0  0  0  0  0  0  0
  1  3  1  0  0  0  0
  2  1  2  0  0  0  0
  2 19  1  0  0  0  0
  3  5  2  0  0  0  0
  3 20  1  0  0  0  0
  4  2  1  0  0  0  0
  4 21  1  0  0  0  0
  5  6  1  0  0  0  0
  5 22  1  0  0  0  0
  6  4  2  0  0  0  0
  7  8  1  0  0  0  0
  7  1  1  0  0  0  0
  7 23  1  0  0  0  0
  8  9  2  0  0  0  0
  9 11  1  0  0  0  0
  9 24  1  0  0  0  0
 10  8  1  0  0  0  0
 10 13  1  0  0  0  0
 11 14  2  0  0  0  0
 11 25  1  0  0  0  0
 12 10  2  0  0  0  0
 12 26  1  0  0  0  0
 14 12  1  0  0  0  0
 14 27  1  0  0  0  0
 15  6  1  0  0  0  0
 15 17  1  0  0  0  0
 15 16  2  0  0  0  0
 17 18  1  0  0  0  0
 18 28  1  0  0  0  0
 18 29  1  0  0  0  0
 18 30  1  0  0  0  0
M  END
>  <minimizedAffinity>
-7.08321

$$$$

 OpenBabel07052409263D

 30 31  0  0  0  0  0  0  0  0999 V2000
  -51.3002    1.0368  -21.3722 C   0  0  0  0  0  0  0  0  0  0  0  0
  -52.1900    1.8502  -20.7637 C   0  0  0  0  0  0  0  0  0  0  0  0
  -50.0341    0.7782  -20.6879 C   0  0  0  0  0  0  0  0  0  0  0  0
  -52.0550    2.1744  -19.3504 C   0  0  0  0  0  0  0  0  0  0  0  0
  -49.8657    1.1278  -19.3992 C   0  0  0  0  0  0  0  0  0  0  0  0
  -50.9498    1.7843  -18.6866 C   0  0  0  0  0  0  0  0  0  0  0  0
  -51.5739    0.2695  -22.4882 N   0  0  0  0  0  0  0  0  0  0  0  0
  -51.4822    0.7379  -23.7857 C   0  0  0  0  0  0  0  0  0  0  0  0
  -50.6070    1.6956  -24.1621 C   0  0  0  0  0  0  0  0  0  0  0  0
  -52.2872    0.0868  -24.8233 C   0  0  0  0  0  0  0  0  0  0  0  0
  -50.4360    2.0482  -25.5617 C   0  0  0  0  0  0  0  0  0  0  0  0
  -52.1399    0.4201  -26.1190 C   0  0  0  0  0  0  0  0  0  0  0  0
  -51.1760    1.4300  -26.4933 C   0  0  0  0  0  0  0  0  0  0  0  0
  -51.0390    1.7339  -27.7980 F   0  0  0  0  0  0  0  0  0  0  0  0
  -50.8902    2.0095  -17.2295 C   0  0  0  0  0  0  0  0  0  0  0  0
  -51.3794    2.9685  -16.6557 O   0  0  0  0  0  0  0  0  0  0  0  0
  -50.2266    0.9864  -16.6370 O   0  0  0  0  0  0  0  0  0  0  0  0
  -49.8723    1.2868  -15.2900 C   0  0  0  0  0  0  0  0  0  0  0  0
  -52.9738    2.2462  -21.3058 H   0  0  0  0  0  0  0  0  0  0  0  0
  -49.2615    0.3228  -21.1985 H   0  0  0  0  0  0  0  0  0  0  0  0
  -52.7986    2.6978  -18.8624 H   0  0  0  0  0  0  0  0  0  0  0  0
  -48.9731    0.9312  -18.9200 H   0  0  0  0  0  0  0  0  0  0  0  0
  -51.8504   -0.6654  -22.3514 H   0  0  0  0  0  0  0  0  0  0  0  0
  -50.0505    2.1850  -23.4439 H   0  0  0  0  0  0  0  0  0  0  0  0
  -52.9747   -0.6354  -24.5573 H   0  0  0  0  0  0  0  0  0  0  0  0
  -49.7503    2.7689  -25.8363 H   0  0  0  0  0  0  0  0  0  0  0  0
  -52.7125   -0.0432  -26.8418 H   0  0  0  0  0  0  0  0  0  0  0  0
  -49.3525    0.4543  -14.8638 H   0  0  0  0  0  0  0  0  0  0  0  0
  -50.7586    1.4821  -14.7232 H   0  0  0  0  0  0  0  0  0  0  0  0
  -49.2398    2.1496  -15.2715 H   0  0  0  0  0  0  0  0  0  0  0  0
  1  3  1  0  0  0  0
  2  1  2  0  0  0  0
  2 19  1  0  0  0  0
  3  5  2  0  0  0  0
  3 20  1  0  0  0  0
  4  2  1  0  0  0  0
  4 21  1  0  0  0  0
  5  6  1  0  0  0  0
  5 22  1  0  0  0  0
  6  4  2  0  0  0  0
  7  8  1  0  0  0  0
  7  1  1  0  0  0  0
  7 23  1  0  0  0  0
  8  9  2  0  0  0  0
  9 11  1  0  0  0  0
  9 24  1  0  0  0  0
 10  8  1  0  0  0  0
 10 25  1  0  0  0  0
 11 13  2  0  0  0  0
 11 26  1  0  0  0  0
 12 10  2  0  0  0  0
 12 27  1  0  0  0  0
 13 12  1  0  0  0  0
 13 14  1  0  0  0  0
 15  6  1  0  0  0  0
 15 17  1  0  0  0  0
 15 16  2  0  0  0  0
 17 18  1  0  0  0  0
 18 28  1  0  0  0  0
 18 29  1  0  0  0  0
 18 30  1  0  0  0  0
M  END
>  <minimizedAffinity>
-7.12367

$$$$

 OpenBabel07052409263D

 30 31  0  0  0  0  0  0  0  0999 V2000
  -50.4083    0.3907  -23.0800 C   0  0  0  0  0  0  0  0  0  0  0  0
  -49.7392    0.0843  -21.9474 C   0  0  0  0  0  0  0  0  0  0  0  0
  -51.7864    0.8623  -22.9496 C   0  0  0  0  0  0  0  0  0  0  0  0
  -50.2228    0.5457  -20.6531 C   0  0  0  0  0  0  0  0  0  0  0  0
  -52.2695    1.2450  -21.7533 C   0  0  0  0  0  0  0  0  0  0  0  0
  -51.4135    1.1714  -20.5802 C   0  0  0  0  0  0  0  0  0  0  0  0
  -49.8324    0.4895  -24.3316 N   0  0  0  0  0  0  0  0  0  0  0  0
  -50.4502    1.0776  -25.4205 C   0  0  0  0  0  0  0  0  0  0  0  0
  -50.4439    2.4089  -25.6416 C   0  0  0  0  0  0  0  0  0  0  0  0
  -50.9944    0.2107  -26.4671 C   0  0  0  0  0  0  0  0  0  0  0  0
  -50.7900    2.9538  -26.9429 C   0  0  0  0  0  0  0  0  0  0  0  0
  -51.3626    0.7162  -27.6583 C   0  0  0  0  0  0  0  0  0  0  0  0
  -51.2332    2.1382  -27.9145 C   0  0  0  0  0  0  0  0  0  0  0  0
  -51.7987    1.8094  -19.3066 C   0  0  0  0  0  0  0  0  0  0  0  0
  -52.4397    2.8435  -19.2161 O   0  0  0  0  0  0  0  0  0  0  0  0
  -51.3416    1.0666  -18.2687 O   0  0  0  0  0  0  0  0  0  0  0  0
  -50.8673    1.8763  -17.1962 C   0  0  0  0  0  0  0  0  0  0  0  0
  -48.8778   -0.4817  -21.9994 H   0  0  0  0  0  0  0  0  0  0  0  0
  -52.3941    0.9020  -23.7828 H   0  0  0  0  0  0  0  0  0  0  0  0
  -49.6596    0.3949  -19.8016 H   0  0  0  0  0  0  0  0  0  0  0  0
  -53.2393    1.5878  -21.6692 H   0  0  0  0  0  0  0  0  0  0  0  0
  -48.9286    0.1194  -24.4560 H   0  0  0  0  0  0  0  0  0  0  0  0
  -50.1892    3.0500  -24.8740 H   0  0  0  0  0  0  0  0  0  0  0  0
  -51.0969   -0.8006  -26.2890 H   0  0  0  0  0  0  0  0  0  0  0  0
  -50.6956    3.9659  -27.1210 H   0  0  0  0  0  0  0  0  0  0  0  0
  -51.7372    0.0922  -28.3900 H   0  0  0  0  0  0  0  0  0  0  0  0
  -51.4807    2.5221  -28.8399 H   0  0  0  0  0  0  0  0  0  0  0  0
  -50.5180    1.2488  -16.4030 H   0  0  0  0  0  0  0  0  0  0  0  0
  -51.6631    2.4950  -16.8374 H   0  0  0  0  0  0  0  0  0  0  0  0
  -50.0646    2.4930  -17.5429 H   0  0  0  0  0  0  0  0  0  0  0  0
  1  3  1  0  0  0  0
  2  1  2  0  0  0  0
  2 18  1  0  0  0  0
  3  5  2  0  0  0  0
  3 19  1  0  0  0  0
  4  2  1  0  0  0  0
  4 20  1  0  0  0  0
  5  6  1  0  0  0  0
  5 21  1  0  0  0  0
  6  4  2  0  0  0  0
  7  8  1  0  0  0  0
  7  1  1  0  0  0  0
  7 22  1  0  0  0  0
  8  9  2  0  0  0  0
  9 11  1  0  0  0  0
  9 23  1  0  0  0  0
 10  8  1  0  0  0  0
 10 24  1  0  0  0  0
 11 13  2  0  0  0  0
 11 25  1  0  0  0  0
 12 10  2  0  0  0  0
 12 26  1  0  0  0  0
 13 12  1  0  0  0  0
 13 27  1  0  0  0  0
 14  6  1  0  0  0  0
 14 16  1  0  0  0  0
 14 15  2  0  0  0  0
 16 17  1  0  0  0  0
 17 28  1  0  0  0  0
 17 29  1  0  0  0  0
 17 30  1  0  0  0  0
M  END
>  <minimizedAffinity>
-6.89549

$$$$

 OpenBabel07052409263D

 30 31  0  0  0  0  0  0  0  0999 V2000
  -49.8709    0.5098  -24.4412 N   0  0  0  0  0  0  0  0  0  0  0  0
  -50.4330    1.0899  -25.5714 C   0  0  0  0  0  0  0  0  0  0  0  0
  -50.9448    0.3748  -26.5979 C   0  0  0  0  0  0  0  0  0  0  0  0
  -50.4153    2.5516  -25.6993 C   0  0  0  0  0  0  0  0  0  0  0  0
  -51.5230    1.0377  -27.7567 C   0  0  0  0  0  0  0  0  0  0  0  0
  -50.9304    3.1707  -26.7729 C   0  0  0  0  0  0  0  0  0  0  0  0
  -49.8545    3.2735  -24.7058 F   0  0  0  0  0  0  0  0  0  0  0  0
  -51.5118    2.3773  -27.8303 C   0  0  0  0  0  0  0  0  0  0  0  0
  -52.0380    3.0142  -28.8941 F   0  0  0  0  0  0  0  0  0  0  0  0
  -50.4917    0.5305  -23.2034 C   0  0  0  0  0  0  0  0  0  0  0  0
  -51.7484    0.9750  -22.9846 C   0  0  0  0  0  0  0  0  0  0  0  0
  -49.6634    0.2083  -22.0423 C   0  0  0  0  0  0  0  0  0  0  0  0
  -52.1871    1.3471  -21.6476 C   0  0  0  0  0  0  0  0  0  0  0  0
  -50.0693    0.5213  -20.7980 C   0  0  0  0  0  0  0  0  0  0  0  0
  -51.3508    1.1803  -20.6055 C   0  0  0  0  0  0  0  0  0  0  0  0
  -51.7611    1.6876  -19.2818 C   0  0  0  0  0  0  0  0  0  0  0  0
  -52.4580    2.6729  -19.1027 O   0  0  0  0  0  0  0  0  0  0  0  0
  -51.2388    0.8983  -18.3111 O   0  0  0  0  0  0  0  0  0  0  0  0
  -50.6941    1.6577  -17.2351 C   0  0  0  0  0  0  0  0  0  0  0  0
  -48.9959    0.0661  -24.5235 H   0  0  0  0  0  0  0  0  0  0  0  0
  -50.9251   -0.6563  -26.5591 H   0  0  0  0  0  0  0  0  0  0  0  0
  -51.9398    0.4801  -28.5185 H   0  0  0  0  0  0  0  0  0  0  0  0
  -50.9113    4.2002  -26.8419 H   0  0  0  0  0  0  0  0  0  0  0  0
  -52.4063    1.0518  -23.7760 H   0  0  0  0  0  0  0  0  0  0  0  0
  -48.7565   -0.2649  -22.1787 H   0  0  0  0  0  0  0  0  0  0  0  0
  -53.1316    1.7357  -21.4995 H   0  0  0  0  0  0  0  0  0  0  0  0
  -49.4746    0.2949  -19.9855 H   0  0  0  0  0  0  0  0  0  0  0  0
  -50.2953    0.9943  -16.4964 H   0  0  0  0  0  0  0  0  0  0  0  0
  -51.4637    2.2582  -16.7969 H   0  0  0  0  0  0  0  0  0  0  0  0
  -49.9144    2.2907  -17.6042 H   0  0  0  0  0  0  0  0  0  0  0  0
  1  2  1  0  0  0  0
  1 10  1  0  0  0  0
  1 20  1  0  0  0  0
  2  3  2  0  0  0  0
  3  5  1  0  0  0  0
  3 21  1  0  0  0  0
  4  2  1  0  0  0  0
  4  7  1  0  0  0  0
  5  8  2  0  0  0  0
  5 22  1  0  0  0  0
  6  4  2  0  0  0  0
  6 23  1  0  0  0  0
  8  6  1  0  0  0  0
  8  9  1  0  0  0  0
 10 12  1  0  0  0  0
 11 10  2  0  0  0  0
 11 24  1  0  0  0  0
 12 14  2  0  0  0  0
 12 25  1  0  0  0  0
 13 11  1  0  0  0  0
 13 26  1  0  0  0  0
 14 15  1  0  0  0  0
 14 27  1  0  0  0  0
 15 13  2  0  0  0  0
 16 15  1  0  0  0  0
 16 18  1  0  0  0  0
 16 17  2  0  0  0  0
 18 19  1  0  0  0  0
 19 28  1  0  0  0  0
 19 29  1  0  0  0  0
 19 30  1  0  0  0  0
M  END
>  <minimizedAffinity>
-7.49389

$$$$

 OpenBabel07052409263D

 24 24  0  0  0  0  0  0  0  0999 V2000
  -50.9370   -0.1781  -23.8302 C   0  0  0  0  0  0  0  0  0  0  0  0
  -51.9963    0.6550  -23.8688 C   0  0  0  0  0  0  0  0  0  0  0  0
  -50.0988   -0.2508  -22.6412 C   0  0  0  0  0  0  0  0  0  0  0  0
  -52.3844    1.3816  -22.6665 C   0  0  0  0  0  0  0  0  0  0  0  0
  -50.4626    0.4137  -21.5284 C   0  0  0  0  0  0  0  0  0  0  0  0
  -51.6909    1.1967  -21.5253 C   0  0  0  0  0  0  0  0  0  0  0  0
  -50.6661   -1.0234  -25.0101 C   0  0  0  0  0  0  0  0  0  0  0  0
  -49.5612   -1.4266  -25.3338 O   0  0  0  0  0  0  0  0  0  0  0  0
  -51.8256   -1.2641  -25.6699 O   0  0  0  0  0  0  0  0  0  0  0  0
  -51.6365   -1.3475  -27.0804 C   0  0  0  0  0  0  0  0  0  0  0  0
  -52.2350    1.7668  -20.2764 C   0  0  0  0  0  0  0  0  0  0  0  0
  -52.9321    2.7662  -20.2167 O   0  0  0  0  0  0  0  0  0  0  0  0
  -51.8242    1.0214  -19.2214 O   0  0  0  0  0  0  0  0  0  0  0  0
  -51.2323    1.8186  -18.1986 C   0  0  0  0  0  0  0  0  0  0  0  0
  -52.5290    0.7774  -24.7442 H   0  0  0  0  0  0  0  0  0  0  0  0
  -49.2307   -0.8087  -22.6518 H   0  0  0  0  0  0  0  0  0  0  0  0
  -53.1845    2.0331  -22.6886 H   0  0  0  0  0  0  0  0  0  0  0  0
  -49.8742    0.3686  -20.6818 H   0  0  0  0  0  0  0  0  0  0  0  0
  -52.5761   -1.5377  -27.5556 H   0  0  0  0  0  0  0  0  0  0  0  0
  -50.9568   -2.1434  -27.3027 H   0  0  0  0  0  0  0  0  0  0  0  0
  -51.2347   -0.4239  -27.4416 H   0  0  0  0  0  0  0  0  0  0  0  0
  -50.9245    1.1897  -17.3895 H   0  0  0  0  0  0  0  0  0  0  0  0
  -51.9467    2.5319  -17.8441 H   0  0  0  0  0  0  0  0  0  0  0  0
  -50.3814    2.3325  -18.5945 H   0  0  0  0  0  0  0  0  0  0  0  0
  1  3  1  0  0  0  0
  2  1  2  0  0  0  0
  2 15  1  0  0  0  0
  3  5  2  0  0  0  0
  3 16  1  0  0  0  0
  4  2  1  0  0  0  0
  4 17  1  0  0  0  0
  5  6  1  0  0  0  0
  5 18  1  0  0  0  0
  6  4  2  0  0  0  0
  7  9  1  0  0  0  0
  7  1  1  0  0  0  0
  7  8  2  0  0  0  0
  9 10  1  0  0  0  0
 10 19  1  0  0  0  0
 10 20  1  0  0  0  0
 10 21  1  0  0  0  0
 11  6  1  0  0  0  0
 11 13  1  0  0  0  0
 11 12  2  0  0  0  0
 13 14  1  0  0  0  0
 14 22  1  0  0  0  0
 14 23  1  0  0  0  0
 14 24  1  0  0  0  0
M  END
>  <minimizedAffinity>
-5.86891

$$$$

 OpenBabel07052409263D

 30 31  0  0  0  0  0  0  0  0999 V2000
  -51.1092    1.8040  -21.4223 N   0  0  0  0  0  0  0  0  0  0  0  0
  -52.1419    1.5987  -22.3034 C   0  0  0  0  0  0  0  0  0  0  0  0
  -53.3145    1.8186  -22.0188 O   0  0  0  0  0  0  0  0  0  0  0  0
  -50.9714    1.0405  -20.2897 C   0  0  0  0  0  0  0  0  0  0  0  0
  -50.1165   -0.0012  -20.2621 C   0  0  0  0  0  0  0  0  0  0  0  0
  -51.4414    1.5994  -19.0222 C   0  0  0  0  0  0  0  0  0  0  0  0
  -49.4005   -0.3291  -19.0293 C   0  0  0  0  0  0  0  0  0  0  0  0
  -50.8463    1.2490  -17.8700 C   0  0  0  0  0  0  0  0  0  0  0  0
  -52.5129    2.4644  -19.0416 O   0  0  0  0  0  0  0  0  0  0  0  0
  -47.8970   -1.7414  -19.0540 I   0  0  0  0  0  0  0  0  0  0  0  0
  -49.7572    0.2847  -17.8813 C   0  0  0  0  0  0  0  0  0  0  0  0
  -51.7101    1.1257  -23.6391 C   0  0  0  0  0  0  0  0  0  0  0  0
  -50.5358    1.5737  -24.1226 C   0  0  0  0  0  0  0  0  0  0  0  0
  -52.6461    0.4505  -24.5244 C   0  0  0  0  0  0  0  0  0  0  0  0
  -50.3448    1.6652  -25.5612 C   0  0  0  0  0  0  0  0  0  0  0  0
  -52.4312    0.4612  -25.8527 C   0  0  0  0  0  0  0  0  0  0  0  0
  -51.2530    1.1294  -26.4033 C   0  0  0  0  0  0  0  0  0  0  0  0
  -51.1153    1.1638  -27.8945 C   0  0  0  0  0  0  0  0  0  0  0  0
  -50.4530    2.5144  -21.6068 H   0  0  0  0  0  0  0  0  0  0  0  0
  -49.9669   -0.5680  -21.1115 H   0  0  0  0  0  0  0  0  0  0  0  0
  -51.1611    1.6630  -16.9787 H   0  0  0  0  0  0  0  0  0  0  0  0
  -52.9135    2.6958  -19.8564 H   0  0  0  0  0  0  0  0  0  0  0  0
  -49.2543    0.0686  -17.0064 H   0  0  0  0  0  0  0  0  0  0  0  0
  -49.7785    1.8495  -23.4781 H   0  0  0  0  0  0  0  0  0  0  0  0
  -53.4704   -0.0340  -24.1360 H   0  0  0  0  0  0  0  0  0  0  0  0
  -49.5114    2.1418  -25.9397 H   0  0  0  0  0  0  0  0  0  0  0  0
  -53.1007   -0.0041  -26.4854 H   0  0  0  0  0  0  0  0  0  0  0  0
  -50.2153    1.6791  -28.1578 H   0  0  0  0  0  0  0  0  0  0  0  0
  -51.9551    1.6734  -28.3186 H   0  0  0  0  0  0  0  0  0  0  0  0
  -51.0772    0.1635  -28.2723 H   0  0  0  0  0  0  0  0  0  0  0  0
  1  4  1  0  0  0  0
  1 19  1  0  0  0  0
  2  1  1  0  0  0  0
  2 12  1  0  0  0  0
  2  3  2  0  0  0  0
  4  5  2  0  0  0  0
  5  7  1  0  0  0  0
  5 20  1  0  0  0  0
  6  4  1  0  0  0  0
  6  9  1  0  0  0  0
  7 10  1  0  0  0  0
  7 11  2  0  0  0  0
  8  6  2  0  0  0  0
  8 21  1  0  0  0  0
  9 22  1  0  0  0  0
 11  8  1  0  0  0  0
 11 23  1  0  0  0  0
 12 13  2  0  0  0  0
 13 15  1  0  0  0  0
 13 24  1  0  0  0  0
 14 12  1  0  0  0  0
 14 25  1  0  0  0  0
 15 17  2  0  0  0  0
 15 26  1  0  0  0  0
 16 14  2  0  0  0  0
 16 27  1  0  0  0  0
 17 16  1  0  0  0  0
 17 18  1  0  0  0  0
 18 28  1  0  0  0  0
 18 29  1  0  0  0  0
 18 30  1  0  0  0  0
M  END
>  <minimizedAffinity>
-7.77521

$$$$

 OpenBabel07052409263D

 29 30  0  0  0  0  0  0  0  0999 V2000
  -49.9535    0.0498  -21.9412 N   0  0  0  0  0  0  0  0  0  0  0  0
  -50.6874   -0.5638  -22.9364 C   0  0  0  0  0  0  0  0  0  0  0  0
  -50.9337   -1.7635  -22.9749 O   0  0  0  0  0  0  0  0  0  0  0  0
  -50.5731    0.5687  -20.8230 C   0  0  0  0  0  0  0  0  0  0  0  0
  -51.8536    0.9855  -20.8756 C   0  0  0  0  0  0  0  0  0  0  0  0
  -49.7941    0.8093  -19.5994 C   0  0  0  0  0  0  0  0  0  0  0  0
  -52.3393    1.9557  -19.9093 C   0  0  0  0  0  0  0  0  0  0  0  0
  -50.2854    1.6461  -18.6624 C   0  0  0  0  0  0  0  0  0  0  0  0
  -48.1683   -0.0804  -19.3456 Br  0  0  0  0  0  0  0  0  0  0  0  0
  -51.5821    2.2772  -18.8459 C   0  0  0  0  0  0  0  0  0  0  0  0
  -51.1283    0.3606  -24.0127 C   0  0  0  0  0  0  0  0  0  0  0  0
  -52.0665   -0.0779  -24.8732 C   0  0  0  0  0  0  0  0  0  0  0  0
  -50.3732    1.5647  -24.3208 C   0  0  0  0  0  0  0  0  0  0  0  0
  -52.0698    0.4277  -26.2366 C   0  0  0  0  0  0  0  0  0  0  0  0
  -50.4407    2.0929  -25.5564 C   0  0  0  0  0  0  0  0  0  0  0  0
  -51.2892    1.4754  -26.5751 C   0  0  0  0  0  0  0  0  0  0  0  0
  -51.2478    2.0603  -27.9528 C   0  0  0  0  0  0  0  0  0  0  0  0
  -48.9754    0.1180  -22.0305 H   0  0  0  0  0  0  0  0  0  0  0  0
  -52.4880    0.6162  -21.6009 H   0  0  0  0  0  0  0  0  0  0  0  0
  -53.2632    2.3969  -20.0389 H   0  0  0  0  0  0  0  0  0  0  0  0
  -49.7372    1.8396  -17.8097 H   0  0  0  0  0  0  0  0  0  0  0  0
  -51.9208    2.9709  -18.1610 H   0  0  0  0  0  0  0  0  0  0  0  0
  -52.7745   -0.7643  -24.5689 H   0  0  0  0  0  0  0  0  0  0  0  0
  -49.7893    2.0111  -23.5964 H   0  0  0  0  0  0  0  0  0  0  0  0
  -52.6713   -0.0162  -26.9480 H   0  0  0  0  0  0  0  0  0  0  0  0
  -49.8921    2.9363  -25.7860 H   0  0  0  0  0  0  0  0  0  0  0  0
  -51.9115    1.5158  -28.5915 H   0  0  0  0  0  0  0  0  0  0  0  0
  -50.2512    1.9974  -28.3372 H   0  0  0  0  0  0  0  0  0  0  0  0
  -51.5511    3.0857  -27.9142 H   0  0  0  0  0  0  0  0  0  0  0  0
  1  4  1  0  0  0  0
  1 18  1  0  0  0  0
  2  1  1  0  0  0  0
  2 11  1  0  0  0  0
  2  3  2  0  0  0  0
  4  5  2  0  0  0  0
  5  7  1  0  0  0  0
  5 19  1  0  0  0  0
  6  4  1  0  0  0  0
  6  9  1  0  0  0  0
  7 10  2  0  0  0  0
  7 20  1  0  0  0  0
  8  6  2  0  0  0  0
  8 21  1  0  0  0  0
 10  8  1  0  0  0  0
 10 22  1  0  0  0  0
 11 12  2  0  0  0  0
 12 14  1  0  0  0  0
 12 23  1  0  0  0  0
 13 11  1  0  0  0  0
 13 24  1  0  0  0  0
 14 16  2  0  0  0  0
 14 25  1  0  0  0  0
 15 13  2  0  0  0  0
 15 26  1  0  0  0  0
 16 15  1  0  0  0  0
 16 17  1  0  0  0  0
 17 27  1  0  0  0  0
 17 28  1  0  0  0  0
 17 29  1  0  0  0  0
M  END
>  <minimizedAffinity>
-7.61304

$$$$

 OpenBabel07052409263D

 32 33  0  0  0  0  0  0  0  0999 V2000
  -50.6585   -0.5940  -21.9557 N   0  0  0  0  0  0  0  0  0  0  0  0
  -49.8019   -0.5129  -23.0307 C   0  0  0  0  0  0  0  0  0  0  0  0
  -48.7110   -1.0695  -23.0656 O   0  0  0  0  0  0  0  0  0  0  0  0
  -50.6783    0.4111  -21.0166 C   0  0  0  0  0  0  0  0  0  0  0  0
  -51.7657    1.1887  -20.8662 C   0  0  0  0  0  0  0  0  0  0  0  0
  -49.6413    0.4251  -19.9957 C   0  0  0  0  0  0  0  0  0  0  0  0
  -51.9981    1.8808  -19.6091 C   0  0  0  0  0  0  0  0  0  0  0  0
  -49.8300    1.1092  -18.8525 C   0  0  0  0  0  0  0  0  0  0  0  0
  -51.0695    1.8498  -18.6315 C   0  0  0  0  0  0  0  0  0  0  0  0
  -51.2340    2.5444  -17.3154 C   0  0  0  0  0  0  0  0  0  0  0  0
  -50.3489    0.2508  -24.1795 C   0  0  0  0  0  0  0  0  0  0  0  0
  -50.9528   -0.4305  -25.1714 C   0  0  0  0  0  0  0  0  0  0  0  0
  -50.1509    1.6865  -24.2959 C   0  0  0  0  0  0  0  0  0  0  0  0
  -51.2225    0.2328  -26.4370 C   0  0  0  0  0  0  0  0  0  0  0  0
  -50.4504    2.3102  -25.4501 C   0  0  0  0  0  0  0  0  0  0  0  0
  -50.9841    1.5529  -26.5808 C   0  0  0  0  0  0  0  0  0  0  0  0
  -51.2474    2.3028  -27.8498 C   0  0  0  0  0  0  0  0  0  0  0  0
  -51.2561   -1.3704  -21.8593 H   0  0  0  0  0  0  0  0  0  0  0  0
  -52.4356    1.2940  -21.6441 H   0  0  0  0  0  0  0  0  0  0  0  0
  -48.7603   -0.0902  -20.1487 H   0  0  0  0  0  0  0  0  0  0  0  0
  -52.8788    2.3989  -19.4639 H   0  0  0  0  0  0  0  0  0  0  0  0
  -49.0951    1.1107  -18.1280 H   0  0  0  0  0  0  0  0  0  0  0  0
  -52.1804    3.0430  -17.2911 H   0  0  0  0  0  0  0  0  0  0  0  0
  -50.4498    3.2615  -17.1901 H   0  0  0  0  0  0  0  0  0  0  0  0
  -51.1893    1.8251  -16.5245 H   0  0  0  0  0  0  0  0  0  0  0  0
  -51.2226   -1.4171  -25.0344 H   0  0  0  0  0  0  0  0  0  0  0  0
  -49.7821    2.2251  -23.4965 H   0  0  0  0  0  0  0  0  0  0  0  0
  -51.5987   -0.3097  -27.2302 H   0  0  0  0  0  0  0  0  0  0  0  0
  -50.3026    3.3278  -25.5374 H   0  0  0  0  0  0  0  0  0  0  0  0
  -51.6330    1.6308  -28.5878 H   0  0  0  0  0  0  0  0  0  0  0  0
  -50.3354    2.7361  -28.2038 H   0  0  0  0  0  0  0  0  0  0  0  0
  -51.9620    3.0774  -27.6646 H   0  0  0  0  0  0  0  0  0  0  0  0
  1  4  1  0  0  0  0
  1 18  1  0  0  0  0
  2  1  1  0  0  0  0
  2 11  1  0  0  0  0
  2  3  2  0  0  0  0
  4  5  2  0  0  0  0
  5  7  1  0  0  0  0
  5 19  1  0  0  0  0
  6  4  1  0  0  0  0
  6 20  1  0  0  0  0
  7  9  2  0  0  0  0
  7 21  1  0  0  0  0
  8  6  2  0  0  0  0
  8 22  1  0  0  0  0
  9  8  1  0  0  0  0
  9 10  1  0  0  0  0
 10 23  1  0  0  0  0
 10 24  1  0  0  0  0
 10 25  1  0  0  0  0
 11 12  2  0  0  0  0
 12 14  1  0  0  0  0
 12 26  1  0  0  0  0
 13 11  1  0  0  0  0
 13 27  1  0  0  0  0
 14 16  2  0  0  0  0
 14 28  1  0  0  0  0
 15 13  2  0  0  0  0
 15 29  1  0  0  0  0
 16 15  1  0  0  0  0
 16 17  1  0  0  0  0
 17 30  1  0  0  0  0
 17 31  1  0  0  0  0
 17 32  1  0  0  0  0
M  END
>  <minimizedAffinity>
-7.56990

$$$$

 OpenBabel07052409263D

 29 30  0  0  0  0  0  0  0  0999 V2000
  -49.9751   -0.0444  -24.5259 N   0  0  0  0  0  0  0  0  0  0  0  0
  -50.7256   -0.4788  -23.4516 C   0  0  0  0  0  0  0  0  0  0  0  0
  -51.3940   -1.5055  -23.4443 O   0  0  0  0  0  0  0  0  0  0  0  0
  -50.5315    0.7772  -25.4839 C   0  0  0  0  0  0  0  0  0  0  0  0
  -50.5079    2.1179  -25.3479 C   0  0  0  0  0  0  0  0  0  0  0  0
  -51.0733    0.1979  -26.7165 C   0  0  0  0  0  0  0  0  0  0  0  0
  -50.7241    2.9689  -26.5059 C   0  0  0  0  0  0  0  0  0  0  0  0
  -51.3473    0.9952  -27.7667 C   0  0  0  0  0  0  0  0  0  0  0  0
  -51.3979   -1.4964  -26.8016 Cl  0  0  0  0  0  0  0  0  0  0  0  0
  -51.1240    2.4287  -27.6706 C   0  0  0  0  0  0  0  0  0  0  0  0
  -50.6125    0.3906  -22.2520 C   0  0  0  0  0  0  0  0  0  0  0  0
  -49.5824    0.1782  -21.4118 C   0  0  0  0  0  0  0  0  0  0  0  0
  -51.7143    1.2472  -21.8424 C   0  0  0  0  0  0  0  0  0  0  0  0
  -49.7313    0.5139  -20.0050 C   0  0  0  0  0  0  0  0  0  0  0  0
  -51.8124    1.6333  -20.5571 C   0  0  0  0  0  0  0  0  0  0  0  0
  -50.8052    1.2138  -19.5833 C   0  0  0  0  0  0  0  0  0  0  0  0
  -51.0240    1.6032  -18.1542 C   0  0  0  0  0  0  0  0  0  0  0  0
  -49.0346   -0.3235  -24.6089 H   0  0  0  0  0  0  0  0  0  0  0  0
  -50.3364    2.5399  -24.4219 H   0  0  0  0  0  0  0  0  0  0  0  0
  -50.5709    3.9870  -26.4345 H   0  0  0  0  0  0  0  0  0  0  0  0
  -51.7161    0.5883  -28.6405 H   0  0  0  0  0  0  0  0  0  0  0  0
  -51.2723    3.0310  -28.4954 H   0  0  0  0  0  0  0  0  0  0  0  0
  -48.6966   -0.2186  -21.7624 H   0  0  0  0  0  0  0  0  0  0  0  0
  -52.4161    1.5568  -22.5328 H   0  0  0  0  0  0  0  0  0  0  0  0
  -49.0131    0.2158  -19.3265 H   0  0  0  0  0  0  0  0  0  0  0  0
  -52.6012    2.2275  -20.2575 H   0  0  0  0  0  0  0  0  0  0  0  0
  -50.2171    1.2340  -17.5564 H   0  0  0  0  0  0  0  0  0  0  0  0
  -51.9455    1.1843  -17.8075 H   0  0  0  0  0  0  0  0  0  0  0  0
  -51.0658    2.6696  -18.0775 H   0  0  0  0  0  0  0  0  0  0  0  0
  1  4  1  0  0  0  0
  1 18  1  0  0  0  0
  2  1  1  0  0  0  0
  2 11  1  0  0  0  0
  2  3  2  0  0  0  0
  4  5  2  0  0  0  0
  5  7  1  0  0  0  0
  5 19  1  0  0  0  0
  6  4  1  0  0  0  0
  6  9  1  0  0  0  0
  7 10  2  0  0  0  0
  7 20  1  0  0  0  0
  8  6  2  0  0  0  0
  8 21  1  0  0  0  0
 10  8  1  0  0  0  0
 10 22  1  0  0  0  0
 11 12  2  0  0  0  0
 12 14  1  0  0  0  0
 12 23  1  0  0  0  0
 13 11  1  0  0  0  0
 13 24  1  0  0  0  0
 14 16  2  0  0  0  0
 14 25  1  0  0  0  0
 15 13  2  0  0  0  0
 15 26  1  0  0  0  0
 16 15  1  0  0  0  0
 16 17  1  0  0  0  0
 17 27  1  0  0  0  0
 17 28  1  0  0  0  0
 17 29  1  0  0  0  0
M  END
>  <minimizedAffinity>
-7.63522

$$$$

 OpenBabel07052409263D

 29 30  0  0  0  0  0  0  0  0999 V2000
  -49.9539   -0.0318  -21.7792 N   0  0  0  0  0  0  0  0  0  0  0  0
  -50.7099   -0.6364  -22.7637 C   0  0  0  0  0  0  0  0  0  0  0  0
  -50.9993   -1.8265  -22.7793 O   0  0  0  0  0  0  0  0  0  0  0  0
  -50.5523    0.4897  -20.6522 C   0  0  0  0  0  0  0  0  0  0  0  0
  -51.2498    1.6417  -20.7075 C   0  0  0  0  0  0  0  0  0  0  0  0
  -50.3031   -0.1256  -19.3454 C   0  0  0  0  0  0  0  0  0  0  0  0
  -51.4418    2.4276  -19.4990 C   0  0  0  0  0  0  0  0  0  0  0  0
  -50.5566    0.5663  -18.2185 C   0  0  0  0  0  0  0  0  0  0  0  0
  -49.7274   -1.7513  -19.2593 Cl  0  0  0  0  0  0  0  0  0  0  0  0
  -51.1033    1.9100  -18.3048 C   0  0  0  0  0  0  0  0  0  0  0  0
  -51.3244    2.8015  -16.8503 Cl  0  0  0  0  0  0  0  0  0  0  0  0
  -51.1148    0.2841  -23.8573 C   0  0  0  0  0  0  0  0  0  0  0  0
  -50.2591    1.2639  -24.2037 C   0  0  0  0  0  0  0  0  0  0  0  0
  -52.2362   -0.0352  -24.7270 C   0  0  0  0  0  0  0  0  0  0  0  0
  -50.2422    1.7381  -25.5778 C   0  0  0  0  0  0  0  0  0  0  0  0
  -52.2750    0.4731  -25.9722 C   0  0  0  0  0  0  0  0  0  0  0  0
  -51.2101    1.3604  -26.4389 C   0  0  0  0  0  0  0  0  0  0  0  0
  -51.2657    1.8137  -27.8649 C   0  0  0  0  0  0  0  0  0  0  0  0
  -48.9767    0.0275  -21.8833 H   0  0  0  0  0  0  0  0  0  0  0  0
  -51.6461    1.9648  -21.6039 H   0  0  0  0  0  0  0  0  0  0  0  0
  -51.8365    3.3793  -19.5576 H   0  0  0  0  0  0  0  0  0  0  0  0
  -50.3634    0.1440  -17.2969 H   0  0  0  0  0  0  0  0  0  0  0  0
  -49.6227    1.6735  -23.5021 H   0  0  0  0  0  0  0  0  0  0  0  0
  -52.9965   -0.6471  -24.3914 H   0  0  0  0  0  0  0  0  0  0  0  0
  -49.4873    2.3658  -25.8959 H   0  0  0  0  0  0  0  0  0  0  0  0
  -53.0589    0.2361  -26.6002 H   0  0  0  0  0  0  0  0  0  0  0  0
  -50.4320    2.4527  -28.0688 H   0  0  0  0  0  0  0  0  0  0  0  0
  -52.1760    2.3503  -28.0333 H   0  0  0  0  0  0  0  0  0  0  0  0
  -51.2288    0.9620  -28.5116 H   0  0  0  0  0  0  0  0  0  0  0  0
  1  4  1  0  0  0  0
  1 19  1  0  0  0  0
  2  1  1  0  0  0  0
  2 12  1  0  0  0  0
  2  3  2  0  0  0  0
  4  5  2  0  0  0  0
  5  7  1  0  0  0  0
  5 20  1  0  0  0  0
  6  4  1  0  0  0  0
  6  9  1  0  0  0  0
  7 10  2  0  0  0  0
  7 21  1  0  0  0  0
  8  6  2  0  0  0  0
  8 22  1  0  0  0  0
 10  8  1  0  0  0  0
 10 11  1  0  0  0  0
 12 13  2  0  0  0  0
 13 15  1  0  0  0  0
 13 23  1  0  0  0  0
 14 12  1  0  0  0  0
 14 24  1  0  0  0  0
 15 17  2  0  0  0  0
 15 25  1  0  0  0  0
 16 14  2  0  0  0  0
 16 26  1  0  0  0  0
 17 16  1  0  0  0  0
 17 18  1  0  0  0  0
 18 27  1  0  0  0  0
 18 28  1  0  0  0  0
 18 29  1  0  0  0  0
M  END
>  <minimizedAffinity>
-7.69865

$$$$

 OpenBabel07052409263D

 29 30  0  0  0  0  0  0  0  0999 V2000
  -50.9087   -0.1925  -21.6324 N   0  0  0  0  0  0  0  0  0  0  0  0
  -50.0887   -0.1762  -22.7384 C   0  0  0  0  0  0  0  0  0  0  0  0
  -48.9944   -0.7224  -22.7988 O   0  0  0  0  0  0  0  0  0  0  0  0
  -50.8021    0.7512  -20.6455 C   0  0  0  0  0  0  0  0  0  0  0  0
  -51.7165    1.7304  -20.5064 C   0  0  0  0  0  0  0  0  0  0  0  0
  -49.8653    0.4839  -19.5641 C   0  0  0  0  0  0  0  0  0  0  0  0
  -51.8891    2.3857  -19.2182 C   0  0  0  0  0  0  0  0  0  0  0  0
  -49.9915    1.1248  -18.3870 C   0  0  0  0  0  0  0  0  0  0  0  0
  -51.0574    2.0945  -18.2018 C   0  0  0  0  0  0  0  0  0  0  0  0
  -51.2181    2.8590  -16.6691 Cl  0  0  0  0  0  0  0  0  0  0  0  0
  -50.6827    0.5257  -23.9051 C   0  0  0  0  0  0  0  0  0  0  0  0
  -51.4269   -0.1933  -24.7663 C   0  0  0  0  0  0  0  0  0  0  0  0
  -50.2844    1.8815  -24.2493 C   0  0  0  0  0  0  0  0  0  0  0  0
  -51.5580    0.2566  -26.1427 C   0  0  0  0  0  0  0  0  0  0  0  0
  -50.4755    2.3319  -25.5029 C   0  0  0  0  0  0  0  0  0  0  0  0
  -51.1010    1.4728  -26.5074 C   0  0  0  0  0  0  0  0  0  0  0  0
  -51.2161    2.0114  -27.9000 C   0  0  0  0  0  0  0  0  0  0  0  0
  -51.5883   -0.8999  -21.5489 H   0  0  0  0  0  0  0  0  0  0  0  0
  -52.2942    2.0158  -21.3125 H   0  0  0  0  0  0  0  0  0  0  0  0
  -49.1029   -0.1982  -19.7000 H   0  0  0  0  0  0  0  0  0  0  0  0
  -52.6480    3.0723  -19.0849 H   0  0  0  0  0  0  0  0  0  0  0  0
  -49.3324    0.9277  -17.6177 H   0  0  0  0  0  0  0  0  0  0  0  0
  -51.8997   -1.0553  -24.4526 H   0  0  0  0  0  0  0  0  0  0  0  0
  -49.8580    2.4942  -23.5367 H   0  0  0  0  0  0  0  0  0  0  0  0
  -52.0024   -0.3567  -26.8437 H   0  0  0  0  0  0  0  0  0  0  0  0
  -50.1794    3.2875  -25.7564 H   0  0  0  0  0  0  0  0  0  0  0  0
  -51.6894    1.2839  -28.5258 H   0  0  0  0  0  0  0  0  0  0  0  0
  -50.2398    2.2281  -28.2804 H   0  0  0  0  0  0  0  0  0  0  0  0
  -51.8014    2.9071  -27.8888 H   0  0  0  0  0  0  0  0  0  0  0  0
  1  4  1  0  0  0  0
  1 18  1  0  0  0  0
  2  1  1  0  0  0  0
  2 11  1  0  0  0  0
  2  3  2  0  0  0  0
  4  5  2  0  0  0  0
  5  7  1  0  0  0  0
  5 19  1  0  0  0  0
  6  4  1  0  0  0  0
  6 20  1  0  0  0  0
  7  9  2  0  0  0  0
  7 21  1  0  0  0  0
  8  6  2  0  0  0  0
  8 22  1  0  0  0  0
  9  8  1  0  0  0  0
  9 10  1  0  0  0  0
 11 12  2  0  0  0  0
 12 14  1  0  0  0  0
 12 23  1  0  0  0  0
 13 11  1  0  0  0  0
 13 24  1  0  0  0  0
 14 16  2  0  0  0  0
 14 25  1  0  0  0  0
 15 13  2  0  0  0  0
 15 26  1  0  0  0  0
 16 15  1  0  0  0  0
 16 17  1  0  0  0  0
 17 27  1  0  0  0  0
 17 28  1  0  0  0  0
 17 29  1  0  0  0  0
M  END
>  <minimizedAffinity>
-7.53775

$$$$

 OpenBabel07052409263D

 30 31  0  0  0  0  0  0  0  0999 V2000
  -52.4278    0.6113  -21.3904 N   0  0  0  0  0  0  0  0  0  0  0  0
  -52.5685    1.6073  -22.3365 C   0  0  0  0  0  0  0  0  0  0  0  0
  -53.1449    2.6709  -22.1421 O   0  0  0  0  0  0  0  0  0  0  0  0
  -51.3571    0.6312  -20.5209 C   0  0  0  0  0  0  0  0  0  0  0  0
  -50.1988    0.0022  -20.7932 C   0  0  0  0  0  0  0  0  0  0  0  0
  -51.5070    1.3598  -19.2647 C   0  0  0  0  0  0  0  0  0  0  0  0
  -49.1803   -0.1232  -19.7611 C   0  0  0  0  0  0  0  0  0  0  0  0
  -50.5466    1.2846  -18.3186 C   0  0  0  0  0  0  0  0  0  0  0  0
  -52.6663    2.1003  -19.1495 O   0  0  0  0  0  0  0  0  0  0  0  0
  -47.6634   -1.1350  -20.1474 Br  0  0  0  0  0  0  0  0  0  0  0  0
  -49.3506    0.4914  -18.5743 C   0  0  0  0  0  0  0  0  0  0  0  0
  -50.6669    2.1710  -16.6807 Br  0  0  0  0  0  0  0  0  0  0  0  0
  -51.9736    1.2691  -23.6556 C   0  0  0  0  0  0  0  0  0  0  0  0
  -50.8547    1.9157  -24.0329 C   0  0  0  0  0  0  0  0  0  0  0  0
  -52.6809    0.4265  -24.6061 C   0  0  0  0  0  0  0  0  0  0  0  0
  -50.5273    2.0074  -25.4471 C   0  0  0  0  0  0  0  0  0  0  0  0
  -52.3323    0.4514  -25.9053 C   0  0  0  0  0  0  0  0  0  0  0  0
  -51.2332    1.3036  -26.3569 C   0  0  0  0  0  0  0  0  0  0  0  0
  -50.9428    1.3325  -27.8255 C   0  0  0  0  0  0  0  0  0  0  0  0
  -53.0920   -0.1134  -21.3364 H   0  0  0  0  0  0  0  0  0  0  0  0
  -50.0330   -0.3908  -21.7329 H   0  0  0  0  0  0  0  0  0  0  0  0
  -53.2903    2.1056  -19.8485 H   0  0  0  0  0  0  0  0  0  0  0  0
  -48.6297    0.4000  -17.8415 H   0  0  0  0  0  0  0  0  0  0  0  0
  -50.2355    2.3420  -23.3259 H   0  0  0  0  0  0  0  0  0  0  0  0
  -53.4462   -0.1874  -24.2860 H   0  0  0  0  0  0  0  0  0  0  0  0
  -49.7514    2.6136  -25.7563 H   0  0  0  0  0  0  0  0  0  0  0  0
  -52.8425   -0.1332  -26.5857 H   0  0  0  0  0  0  0  0  0  0  0  0
  -50.1210    1.9914  -28.0137 H   0  0  0  0  0  0  0  0  0  0  0  0
  -51.8065    1.6798  -28.3531 H   0  0  0  0  0  0  0  0  0  0  0  0
  -50.6934    0.3469  -28.1592 H   0  0  0  0  0  0  0  0  0  0  0  0
  1  4  1  0  0  0  0
  1 20  1  0  0  0  0
  2  1  1  0  0  0  0
  2 13  1  0  0  0  0
  2  3  2  0  0  0  0
  4  5  2  0  0  0  0
  5  7  1  0  0  0  0
  5 21  1  0  0  0  0
  6  4  1  0  0  0  0
  6  9  1  0  0  0  0
  7 10  1  0  0  0  0
  7 11  2  0  0  0  0
  8  6  2  0  0  0  0
  8 12  1  0  0  0  0
  9 22  1  0  0  0  0
 11  8  1  0  0  0  0
 11 23  1  0  0  0  0
 13 14  2  0  0  0  0
 14 16  1  0  0  0  0
 14 24  1  0  0  0  0
 15 13  1  0  0  0  0
 15 25  1  0  0  0  0
 16 18  2  0  0  0  0
 16 26  1  0  0  0  0
 17 15  2  0  0  0  0
 17 27  1  0  0  0  0
 18 17  1  0  0  0  0
 18 19  1  0  0  0  0
 19 28  1  0  0  0  0
 19 29  1  0  0  0  0
 19 30  1  0  0  0  0
M  END
>  <minimizedAffinity>
-7.37269

$$$$

 OpenBabel07052409263D

 29 30  0  0  0  0  0  0  0  0999 V2000
  -51.0620   -0.3027  -22.2812 N   0  0  0  0  0  0  0  0  0  0  0  0
  -49.8936   -0.2724  -21.5473 C   0  0  0  0  0  0  0  0  0  0  0  0
  -48.9519   -1.0419  -21.7210 O   0  0  0  0  0  0  0  0  0  0  0  0
  -51.2727    0.4927  -23.3755 C   0  0  0  0  0  0  0  0  0  0  0  0
  -50.4233    1.4623  -23.7540 C   0  0  0  0  0  0  0  0  0  0  0  0
  -52.3036    0.0520  -24.3023 C   0  0  0  0  0  0  0  0  0  0  0  0
  -50.3274    1.8291  -25.1644 C   0  0  0  0  0  0  0  0  0  0  0  0
  -52.2697    0.4496  -25.5870 C   0  0  0  0  0  0  0  0  0  0  0  0
  -51.2154    1.3402  -26.0492 C   0  0  0  0  0  0  0  0  0  0  0  0
  -51.1496    1.7370  -27.8686 Br  0  0  0  0  0  0  0  0  0  0  0  0
  -49.9053    0.7462  -20.4617 C   0  0  0  0  0  0  0  0  0  0  0  0
  -48.9248    0.6826  -19.5407 C   0  0  0  0  0  0  0  0  0  0  0  0
  -51.1124    1.5041  -20.1626 C   0  0  0  0  0  0  0  0  0  0  0  0
  -49.2335    0.9737  -18.1449 C   0  0  0  0  0  0  0  0  0  0  0  0
  -51.3648    1.8734  -18.8935 C   0  0  0  0  0  0  0  0  0  0  0  0
  -50.4166    1.5393  -17.8240 C   0  0  0  0  0  0  0  0  0  0  0  0
  -50.8260    1.8720  -16.4192 C   0  0  0  0  0  0  0  0  0  0  0  0
  -51.7750   -0.9233  -22.0059 H   0  0  0  0  0  0  0  0  0  0  0  0
  -49.8416    1.9454  -23.0517 H   0  0  0  0  0  0  0  0  0  0  0  0
  -53.0618   -0.5663  -23.9739 H   0  0  0  0  0  0  0  0  0  0  0  0
  -49.5782    2.4636  -25.4825 H   0  0  0  0  0  0  0  0  0  0  0  0
  -52.9930    0.1224  -26.2464 H   0  0  0  0  0  0  0  0  0  0  0  0
  -47.9638    0.4302  -19.8198 H   0  0  0  0  0  0  0  0  0  0  0  0
  -51.7690    1.7559  -20.9179 H   0  0  0  0  0  0  0  0  0  0  0  0
  -48.5499    0.7481  -17.4054 H   0  0  0  0  0  0  0  0  0  0  0  0
  -52.2281    2.3934  -18.6713 H   0  0  0  0  0  0  0  0  0  0  0  0
  -50.0505    1.5787  -15.7428 H   0  0  0  0  0  0  0  0  0  0  0  0
  -51.7273    1.3487  -16.1770 H   0  0  0  0  0  0  0  0  0  0  0  0
  -50.9921    2.9258  -16.3362 H   0  0  0  0  0  0  0  0  0  0  0  0
  1  4  1  0  0  0  0
  1 18  1  0  0  0  0
  2  1  1  0  0  0  0
  2 11  1  0  0  0  0
  2  3  2  0  0  0  0
  4  5  2  0  0  0  0
  5  7  1  0  0  0  0
  5 19  1  0  0  0  0
  6  4  1  0  0  0  0
  6 20  1  0  0  0  0
  7  9  2  0  0  0  0
  7 21  1  0  0  0  0
  8  6  2  0  0  0  0
  8 22  1  0  0  0  0
  9  8  1  0  0  0  0
  9 10  1  0  0  0  0
 11 12  2  0  0  0  0
 12 14  1  0  0  0  0
 12 23  1  0  0  0  0
 13 11  1  0  0  0  0
 13 24  1  0  0  0  0
 14 16  2  0  0  0  0
 14 25  1  0  0  0  0
 15 13  2  0  0  0  0
 15 26  1  0  0  0  0
 16 15  1  0  0  0  0
 16 17  1  0  0  0  0
 17 27  1  0  0  0  0
 17 28  1  0  0  0  0
 17 29  1  0  0  0  0
M  END
>  <minimizedAffinity>
-7.59915

$$$$

 OpenBabel07052409263D

 30 31  0  0  0  0  0  0  0  0999 V2000
  -52.3742    0.6774  -19.0336 N   0  0  0  0  0  0  0  0  0  0  0  0
  -52.2581    1.6146  -20.0391 C   0  0  0  0  0  0  0  0  0  0  0  0
  -52.4827    2.8082  -19.8860 O   0  0  0  0  0  0  0  0  0  0  0  0
  -51.2877    0.3953  -18.2277 C   0  0  0  0  0  0  0  0  0  0  0  0
  -50.4766   -0.6521  -18.4796 C   0  0  0  0  0  0  0  0  0  0  0  0
  -50.8230    1.4489  -17.3245 C   0  0  0  0  0  0  0  0  0  0  0  0
  -49.0985   -0.6390  -18.0147 C   0  0  0  0  0  0  0  0  0  0  0  0
  -49.5649    1.4363  -16.8540 C   0  0  0  0  0  0  0  0  0  0  0  0
  -51.7113    2.4407  -16.9765 O   0  0  0  0  0  0  0  0  0  0  0  0
  -48.6612    0.3635  -17.2318 C   0  0  0  0  0  0  0  0  0  0  0  0
  -51.9141    1.0291  -21.3591 C   0  0  0  0  0  0  0  0  0  0  0  0
  -52.6098    1.4612  -22.4279 C   0  0  0  0  0  0  0  0  0  0  0  0
  -50.6418    0.3509  -21.5592 C   0  0  0  0  0  0  0  0  0  0  0  0
  -51.9317    1.6019  -23.7062 C   0  0  0  0  0  0  0  0  0  0  0  0
  -50.0502    0.3922  -22.7670 C   0  0  0  0  0  0  0  0  0  0  0  0
  -50.6948    1.0909  -23.8782 C   0  0  0  0  0  0  0  0  0  0  0  0
  -49.9356    1.1895  -25.1652 C   0  0  0  0  0  0  0  0  0  0  0  0
  -53.2291    0.2106  -18.8905 H   0  0  0  0  0  0  0  0  0  0  0  0
  -50.8348   -1.4656  -19.0039 H   0  0  0  0  0  0  0  0  0  0  0  0
  -48.4557   -1.3995  -18.2857 H   0  0  0  0  0  0  0  0  0  0  0  0
  -49.2408    2.1876  -16.2251 H   0  0  0  0  0  0  0  0  0  0  0  0
  -52.5841    2.4287  -17.3173 H   0  0  0  0  0  0  0  0  0  0  0  0
  -47.6841    0.3705  -16.8997 H   0  0  0  0  0  0  0  0  0  0  0  0
  -53.6124    1.6898  -22.3407 H   0  0  0  0  0  0  0  0  0  0  0  0
  -50.1964   -0.1583  -20.7798 H   0  0  0  0  0  0  0  0  0  0  0  0
  -52.3978    2.0941  -24.4844 H   0  0  0  0  0  0  0  0  0  0  0  0
  -49.1389   -0.0706  -22.9096 H   0  0  0  0  0  0  0  0  0  0  0  0
  -50.5216    1.7216  -25.8851 H   0  0  0  0  0  0  0  0  0  0  0  0
  -49.7264    0.2064  -25.5321 H   0  0  0  0  0  0  0  0  0  0  0  0
  -49.0163    1.7109  -24.9980 H   0  0  0  0  0  0  0  0  0  0  0  0
  1  4  1  0  0  0  0
  1 18  1  0  0  0  0
  2  1  1  0  0  0  0
  2 11  1  0  0  0  0
  2  3  2  0  0  0  0
  4  5  2  0  0  0  0
  5  7  1  0  0  0  0
  5 19  1  0  0  0  0
  6  4  1  0  0  0  0
  6  9  1  0  0  0  0
  7 10  2  0  0  0  0
  7 20  1  0  0  0  0
  8  6  2  0  0  0  0
  8 21  1  0  0  0  0
  9 22  1  0  0  0  0
 10  8  1  0  0  0  0
 10 23  1  0  0  0  0
 11 12  2  0  0  0  0
 12 14  1  0  0  0  0
 12 24  1  0  0  0  0
 13 11  1  0  0  0  0
 13 25  1  0  0  0  0
 14 16  2  0  0  0  0
 14 26  1  0  0  0  0
 15 13  2  0  0  0  0
 15 27  1  0  0  0  0
 16 15  1  0  0  0  0
 16 17  1  0  0  0  0
 17 28  1  0  0  0  0
 17 29  1  0  0  0  0
 17 30  1  0  0  0  0
M  END
>  <minimizedAffinity>
-7.62447

$$$$

 OpenBabel07052409263D

 33 34  0  0  0  0  0  0  0  0999 V2000
  -50.0228   -1.7193  -24.8389 N   0  0  0  0  0  0  0  0  0  0  0  0
  -48.7786   -1.7125  -24.2430 C   0  0  0  0  0  0  0  0  0  0  0  0
  -47.7322   -1.8927  -24.8524 O   0  0  0  0  0  0  0  0  0  0  0  0
  -50.5568   -0.5440  -25.3312 C   0  0  0  0  0  0  0  0  0  0  0  0
  -50.0772    0.6599  -24.9619 C   0  0  0  0  0  0  0  0  0  0  0  0
  -51.4150   -0.6317  -26.5111 C   0  0  0  0  0  0  0  0  0  0  0  0
  -50.2695    1.8200  -25.8182 C   0  0  0  0  0  0  0  0  0  0  0  0
  -51.6307    0.4489  -27.2795 C   0  0  0  0  0  0  0  0  0  0  0  0
  -51.9881   -1.8486  -26.8036 O   0  0  0  0  0  0  0  0  0  0  0  0
  -51.0195    1.7298  -26.9356 C   0  0  0  0  0  0  0  0  0  0  0  0
  -51.2733    2.8826  -27.8560 C   0  0  0  0  0  0  0  0  0  0  0  0
  -48.8258   -1.5378  -22.7699 C   0  0  0  0  0  0  0  0  0  0  0  0
  -50.0395   -1.3966  -22.2034 C   0  0  0  0  0  0  0  0  0  0  0  0
  -47.6369   -1.1457  -22.0290 C   0  0  0  0  0  0  0  0  0  0  0  0
  -50.1849   -0.5381  -21.0385 C   0  0  0  0  0  0  0  0  0  0  0  0
  -47.7653   -0.4224  -20.9018 C   0  0  0  0  0  0  0  0  0  0  0  0
  -49.0925   -0.0630  -20.4045 C   0  0  0  0  0  0  0  0  0  0  0  0
  -49.1590    0.8135  -19.1919 C   0  0  0  0  0  0  0  0  0  0  0  0
  -50.5293   -2.5602  -24.9132 H   0  0  0  0  0  0  0  0  0  0  0  0
  -49.5714    0.7593  -24.0679 H   0  0  0  0  0  0  0  0  0  0  0  0
  -49.8286    2.7191  -25.5688 H   0  0  0  0  0  0  0  0  0  0  0  0
  -52.2305    0.3736  -28.1159 H   0  0  0  0  0  0  0  0  0  0  0  0
  -51.8232   -2.5886  -26.2530 H   0  0  0  0  0  0  0  0  0  0  0  0
  -50.7698    3.7515  -27.4866 H   0  0  0  0  0  0  0  0  0  0  0  0
  -52.3248    3.0741  -27.9062 H   0  0  0  0  0  0  0  0  0  0  0  0
  -50.9067    2.6463  -28.8331 H   0  0  0  0  0  0  0  0  0  0  0  0
  -50.8573   -1.8921  -22.5916 H   0  0  0  0  0  0  0  0  0  0  0  0
  -46.7009   -1.4206  -22.3658 H   0  0  0  0  0  0  0  0  0  0  0  0
  -51.1265   -0.2915  -20.6957 H   0  0  0  0  0  0  0  0  0  0  0  0
  -46.9239   -0.1201  -20.3863 H   0  0  0  0  0  0  0  0  0  0  0  0
  -50.1826    0.9960  -18.9394 H   0  0  0  0  0  0  0  0  0  0  0  0
  -48.6710    1.7434  -19.3968 H   0  0  0  0  0  0  0  0  0  0  0  0
  -48.6709    0.3273  -18.3732 H   0  0  0  0  0  0  0  0  0  0  0  0
  1  4  1  0  0  0  0
  1 19  1  0  0  0  0
  2  1  1  0  0  0  0
  2 12  1  0  0  0  0
  2  3  2  0  0  0  0
  4  5  2  0  0  0  0
  5  7  1  0  0  0  0
  5 20  1  0  0  0  0
  6  4  1  0  0  0  0
  6  9  1  0  0  0  0
  7 10  2  0  0  0  0
  7 21  1  0  0  0  0
  8  6  2  0  0  0  0
  8 22  1  0  0  0  0
  9 23  1  0  0  0  0
 10  8  1  0  0  0  0
 10 11  1  0  0  0  0
 11 24  1  0  0  0  0
 11 25  1  0  0  0  0
 11 26  1  0  0  0  0
 12 13  2  0  0  0  0
 13 15  1  0  0  0  0
 13 27  1  0  0  0  0
 14 12  1  0  0  0  0
 14 28  1  0  0  0  0
 15 17  2  0  0  0  0
 15 29  1  0  0  0  0
 16 14  2  0  0  0  0
 16 30  1  0  0  0  0
 17 16  1  0  0  0  0
 17 18  1  0  0  0  0
 18 31  1  0  0  0  0
 18 32  1  0  0  0  0
 18 33  1  0  0  0  0
M  END
>  <minimizedAffinity>
-8.00748

$$$$

 OpenBabel07052409263D

 29 30  0  0  0  0  0  0  0  0999 V2000
  -50.0907    0.2191  -24.3767 N   0  0  0  0  0  0  0  0  0  0  0  0
  -50.9765   -0.1632  -23.3889 C   0  0  0  0  0  0  0  0  0  0  0  0
  -51.6970   -1.1525  -23.4434 O   0  0  0  0  0  0  0  0  0  0  0  0
  -50.5544    0.8548  -25.5072 C   0  0  0  0  0  0  0  0  0  0  0  0
  -50.9342    0.1667  -26.6014 C   0  0  0  0  0  0  0  0  0  0  0  0
  -50.4895    2.3088  -25.5699 C   0  0  0  0  0  0  0  0  0  0  0  0
  -51.3231    0.8754  -27.8117 C   0  0  0  0  0  0  0  0  0  0  0  0
  -50.8353    2.9667  -26.6883 C   0  0  0  0  0  0  0  0  0  0  0  0
  -50.0566    2.9863  -24.4863 F   0  0  0  0  0  0  0  0  0  0  0  0
  -51.2787    2.2197  -27.8533 C   0  0  0  0  0  0  0  0  0  0  0  0
  -50.9446    0.7162  -22.1922 C   0  0  0  0  0  0  0  0  0  0  0  0
  -49.8625    0.6700  -21.3928 C   0  0  0  0  0  0  0  0  0  0  0  0
  -52.1338    1.4344  -21.7620 C   0  0  0  0  0  0  0  0  0  0  0  0
  -49.9885    1.0661  -19.9996 C   0  0  0  0  0  0  0  0  0  0  0  0
  -52.2230    1.8732  -20.4932 C   0  0  0  0  0  0  0  0  0  0  0  0
  -51.1231    1.6469  -19.5566 C   0  0  0  0  0  0  0  0  0  0  0  0
  -51.3208    2.0920  -18.1406 C   0  0  0  0  0  0  0  0  0  0  0  0
  -49.1287    0.0375  -24.2731 H   0  0  0  0  0  0  0  0  0  0  0  0
  -50.9494   -0.8650  -26.5814 H   0  0  0  0  0  0  0  0  0  0  0  0
  -51.6339    0.3452  -28.6407 H   0  0  0  0  0  0  0  0  0  0  0  0
  -50.7864    3.9970  -26.7203 H   0  0  0  0  0  0  0  0  0  0  0  0
  -51.5592    2.7196  -28.7115 H   0  0  0  0  0  0  0  0  0  0  0  0
  -48.9525    0.3565  -21.7652 H   0  0  0  0  0  0  0  0  0  0  0  0
  -52.9048    1.6065  -22.4261 H   0  0  0  0  0  0  0  0  0  0  0  0
  -49.2065    0.9023  -19.3464 H   0  0  0  0  0  0  0  0  0  0  0  0
  -53.0708    2.3713  -20.1799 H   0  0  0  0  0  0  0  0  0  0  0  0
  -50.4440    1.8666  -17.5702 H   0  0  0  0  0  0  0  0  0  0  0  0
  -52.1612    1.5805  -17.7200 H   0  0  0  0  0  0  0  0  0  0  0  0
  -51.4984    3.1469  -18.1198 H   0  0  0  0  0  0  0  0  0  0  0  0
  1  4  1  0  0  0  0
  1 18  1  0  0  0  0
  2  1  1  0  0  0  0
  2 11  1  0  0  0  0
  2  3  2  0  0  0  0
  4  5  2  0  0  0  0
  5  7  1  0  0  0  0
  5 19  1  0  0  0  0
  6  4  1  0  0  0  0
  6  9  1  0  0  0  0
  7 10  2  0  0  0  0
  7 20  1  0  0  0  0
  8  6  2  0  0  0  0
  8 21  1  0  0  0  0
 10  8  1  0  0  0  0
 10 22  1  0  0  0  0
 11 12  2  0  0  0  0
 12 14  1  0  0  0  0
 12 23  1  0  0  0  0
 13 11  1  0  0  0  0
 13 24  1  0  0  0  0
 14 16  2  0  0  0  0
 14 25  1  0  0  0  0
 15 13  2  0  0  0  0
 15 26  1  0  0  0  0
 16 15  1  0  0  0  0
 16 17  1  0  0  0  0
 17 27  1  0  0  0  0
 17 28  1  0  0  0  0
 17 29  1  0  0  0  0
M  END
>  <minimizedAffinity>
-7.57771

$$$$

 OpenBabel07052409263D

 29 30  0  0  0  0  0  0  0  0999 V2000
  -51.6107   -0.1188  -23.5348 N   0  0  0  0  0  0  0  0  0  0  0  0
  -50.8969   -0.5805  -22.4575 C   0  0  0  0  0  0  0  0  0  0  0  0
  -50.3910   -1.6921  -22.3867 O   0  0  0  0  0  0  0  0  0  0  0  0
  -51.0384    0.5210  -24.5966 C   0  0  0  0  0  0  0  0  0  0  0  0
  -51.2823    0.1306  -25.8633 C   0  0  0  0  0  0  0  0  0  0  0  0
  -50.5011    1.8528  -24.3481 C   0  0  0  0  0  0  0  0  0  0  0  0
  -51.2557    1.1072  -26.9410 C   0  0  0  0  0  0  0  0  0  0  0  0
  -50.4224    2.7435  -25.3535 C   0  0  0  0  0  0  0  0  0  0  0  0
  -50.8444    2.3593  -26.6848 C   0  0  0  0  0  0  0  0  0  0  0  0
  -50.7953    3.2835  -27.6630 F   0  0  0  0  0  0  0  0  0  0  0  0
  -50.8356    0.3905  -21.3361 C   0  0  0  0  0  0  0  0  0  0  0  0
  -49.6977    0.4592  -20.6175 C   0  0  0  0  0  0  0  0  0  0  0  0
  -52.0330    1.0771  -20.8736 C   0  0  0  0  0  0  0  0  0  0  0  0
  -49.7452    0.9714  -19.2558 C   0  0  0  0  0  0  0  0  0  0  0  0
  -52.0552    1.6159  -19.6393 C   0  0  0  0  0  0  0  0  0  0  0  0
  -50.8743    1.5370  -18.7780 C   0  0  0  0  0  0  0  0  0  0  0  0
  -50.9889    2.1128  -17.4003 C   0  0  0  0  0  0  0  0  0  0  0  0
  -52.5856   -0.2560  -23.5424 H   0  0  0  0  0  0  0  0  0  0  0  0
  -51.4876   -0.8598  -26.0683 H   0  0  0  0  0  0  0  0  0  0  0  0
  -50.1813    2.1124  -23.4019 H   0  0  0  0  0  0  0  0  0  0  0  0
  -51.5502    0.8402  -27.8934 H   0  0  0  0  0  0  0  0  0  0  0  0
  -50.0635    3.6949  -25.1771 H   0  0  0  0  0  0  0  0  0  0  0  0
  -48.8022    0.1520  -21.0282 H   0  0  0  0  0  0  0  0  0  0  0  0
  -52.8594    1.1506  -21.4873 H   0  0  0  0  0  0  0  0  0  0  0  0
  -48.9111    0.9018  -18.6521 H   0  0  0  0  0  0  0  0  0  0  0  0
  -52.9085    2.0864  -19.2994 H   0  0  0  0  0  0  0  0  0  0  0  0
  -50.0603    1.9884  -16.8834 H   0  0  0  0  0  0  0  0  0  0  0  0
  -51.7653    1.6066  -16.8656 H   0  0  0  0  0  0  0  0  0  0  0  0
  -51.2229    3.1547  -17.4675 H   0  0  0  0  0  0  0  0  0  0  0  0
  1  4  1  0  0  0  0
  1 18  1  0  0  0  0
  2  1  1  0  0  0  0
  2 11  1  0  0  0  0
  2  3  2  0  0  0  0
  4  5  2  0  0  0  0
  5  7  1  0  0  0  0
  5 19  1  0  0  0  0
  6  4  1  0  0  0  0
  6 20  1  0  0  0  0
  7  9  2  0  0  0  0
  7 21  1  0  0  0  0
  8  6  2  0  0  0  0
  8 22  1  0  0  0  0
  9  8  1  0  0  0  0
  9 10  1  0  0  0  0
 11 12  2  0  0  0  0
 12 14  1  0  0  0  0
 12 23  1  0  0  0  0
 13 11  1  0  0  0  0
 13 24  1  0  0  0  0
 14 16  2  0  0  0  0
 14 25  1  0  0  0  0
 15 13  2  0  0  0  0
 15 26  1  0  0  0  0
 16 15  1  0  0  0  0
 16 17  1  0  0  0  0
 17 27  1  0  0  0  0
 17 28  1  0  0  0  0
 17 29  1  0  0  0  0
M  END
>  <minimizedAffinity>
-7.59836

$$$$

 OpenBabel07052409263D

 29 30  0  0  0  0  0  0  0  0999 V2000
  -50.0768   -0.0477  -21.8899 N   0  0  0  0  0  0  0  0  0  0  0  0
  -50.7283   -0.6795  -22.9237 C   0  0  0  0  0  0  0  0  0  0  0  0
  -50.9768   -1.8784  -22.9575 O   0  0  0  0  0  0  0  0  0  0  0  0
  -51.0666    0.2241  -24.0527 C   0  0  0  0  0  0  0  0  0  0  0  0
  -52.0620   -0.1378  -24.8840 C   0  0  0  0  0  0  0  0  0  0  0  0
  -50.2342    1.3722  -24.3730 C   0  0  0  0  0  0  0  0  0  0  0  0
  -52.1138    0.4289  -26.2227 C   0  0  0  0  0  0  0  0  0  0  0  0
  -50.3320    1.9477  -25.5850 C   0  0  0  0  0  0  0  0  0  0  0  0
  -51.2851    1.4363  -26.5687 C   0  0  0  0  0  0  0  0  0  0  0  0
  -51.2940    2.0832  -27.9191 C   0  0  0  0  0  0  0  0  0  0  0  0
  -50.7521    0.4955  -20.8296 C   0  0  0  0  0  0  0  0  0  0  0  0
  -51.9133    1.1560  -21.0004 C   0  0  0  0  0  0  0  0  0  0  0  0
  -50.0297    0.6285  -19.5734 C   0  0  0  0  0  0  0  0  0  0  0  0
  -52.3410    2.1401  -20.0186 C   0  0  0  0  0  0  0  0  0  0  0  0
  -50.4530    1.5008  -18.6406 C   0  0  0  0  0  0  0  0  0  0  0  0
  -51.6392    2.3037  -18.8829 C   0  0  0  0  0  0  0  0  0  0  0  0
  -49.0946    0.0159  -21.9130 H   0  0  0  0  0  0  0  0  0  0  0  0
  -52.7809   -0.8104  -24.5746 H   0  0  0  0  0  0  0  0  0  0  0  0
  -49.5718    1.7437  -23.6743 H   0  0  0  0  0  0  0  0  0  0  0  0
  -52.7876    0.0588  -26.9112 H   0  0  0  0  0  0  0  0  0  0  0  0
  -49.7319    2.7533  -25.8214 H   0  0  0  0  0  0  0  0  0  0  0  0
  -52.0335    1.6145  -28.5342 H   0  0  0  0  0  0  0  0  0  0  0  0
  -50.3312    1.9743  -28.3731 H   0  0  0  0  0  0  0  0  0  0  0  0
  -51.5237    3.1231  -27.8149 H   0  0  0  0  0  0  0  0  0  0  0  0
  -52.4995    0.9639  -21.8277 H   0  0  0  0  0  0  0  0  0  0  0  0
  -49.1914    0.0528  -19.3977 H   0  0  0  0  0  0  0  0  0  0  0  0
  -53.1820    2.7122  -20.1931 H   0  0  0  0  0  0  0  0  0  0  0  0
  -49.9352    1.5995  -17.7533 H   0  0  0  0  0  0  0  0  0  0  0  0
  -51.9433    2.9994  -18.1839 H   0  0  0  0  0  0  0  0  0  0  0  0
  1 11  1  0  0  0  0
  1 17  1  0  0  0  0
  2  1  1  0  0  0  0
  2  4  1  0  0  0  0
  2  3  2  0  0  0  0
  4  5  2  0  0  0  0
  5  7  1  0  0  0  0
  5 18  1  0  0  0  0
  6  4  1  0  0  0  0
  6 19  1  0  0  0  0
  7  9  2  0  0  0  0
  7 20  1  0  0  0  0
  8  6  2  0  0  0  0
  8 21  1  0  0  0  0
  9  8  1  0  0  0  0
  9 10  1  0  0  0  0
 10 22  1  0  0  0  0
 10 23  1  0  0  0  0
 10 24  1  0  0  0  0
 11 12  2  0  0  0  0
 12 14  1  0  0  0  0
 12 25  1  0  0  0  0
 13 11  1  0  0  0  0
 13 26  1  0  0  0  0
 14 16  2  0  0  0  0
 14 27  1  0  0  0  0
 15 13  2  0  0  0  0
 15 28  1  0  0  0  0
 16 15  1  0  0  0  0
 16 29  1  0  0  0  0
M  END
>  <minimizedAffinity>
-7.40240

$$$$

 OpenBabel07052409263D

 29 30  0  0  0  0  0  0  0  0999 V2000
  -49.8423    0.1009  -24.1328 N   0  0  0  0  0  0  0  0  0  0  0  0
  -50.6260   -0.3463  -23.0872 C   0  0  0  0  0  0  0  0  0  0  0  0
  -51.3067   -1.3645  -23.1123 O   0  0  0  0  0  0  0  0  0  0  0  0
  -50.4291    0.6815  -25.2345 C   0  0  0  0  0  0  0  0  0  0  0  0
  -50.8782   -0.0585  -26.2683 C   0  0  0  0  0  0  0  0  0  0  0  0
  -50.4147    2.1354  -25.3513 C   0  0  0  0  0  0  0  0  0  0  0  0
  -51.3753    0.5957  -27.4701 C   0  0  0  0  0  0  0  0  0  0  0  0
  -50.8651    2.7431  -26.4603 C   0  0  0  0  0  0  0  0  0  0  0  0
  -49.9224    2.8629  -24.3275 F   0  0  0  0  0  0  0  0  0  0  0  0
  -51.3677    1.9360  -27.5504 C   0  0  0  0  0  0  0  0  0  0  0  0
  -51.8254    2.5630  -28.6511 F   0  0  0  0  0  0  0  0  0  0  0  0
  -50.5442    0.5114  -21.8776 C   0  0  0  0  0  0  0  0  0  0  0  0
  -51.6040    1.2892  -21.5870 C   0  0  0  0  0  0  0  0  0  0  0  0
  -49.4798    0.3407  -20.9025 C   0  0  0  0  0  0  0  0  0  0  0  0
  -51.8258    1.7069  -20.2117 C   0  0  0  0  0  0  0  0  0  0  0  0
  -49.6502    0.7926  -19.6467 C   0  0  0  0  0  0  0  0  0  0  0  0
  -50.8881    1.4732  -19.2697 C   0  0  0  0  0  0  0  0  0  0  0  0
  -51.0366    1.8897  -17.8390 C   0  0  0  0  0  0  0  0  0  0  0  0
  -48.8635    0.0044  -24.0902 H   0  0  0  0  0  0  0  0  0  0  0  0
  -50.8695   -1.0887  -26.2076 H   0  0  0  0  0  0  0  0  0  0  0  0
  -51.7321    0.0316  -28.2572 H   0  0  0  0  0  0  0  0  0  0  0  0
  -50.8529    3.7724  -26.5342 H   0  0  0  0  0  0  0  0  0  0  0  0
  -52.2526    1.5861  -22.3328 H   0  0  0  0  0  0  0  0  0  0  0  0
  -48.5987   -0.1243  -21.1718 H   0  0  0  0  0  0  0  0  0  0  0  0
  -52.7041    2.1841  -19.9550 H   0  0  0  0  0  0  0  0  0  0  0  0
  -48.9040    0.6583  -18.9466 H   0  0  0  0  0  0  0  0  0  0  0  0
  -51.9820    2.3724  -17.7043 H   0  0  0  0  0  0  0  0  0  0  0  0
  -50.2500    2.5678  -17.5814 H   0  0  0  0  0  0  0  0  0  0  0  0
  -50.9839    1.0265  -17.2089 H   0  0  0  0  0  0  0  0  0  0  0  0
  1  4  1  0  0  0  0
  1 19  1  0  0  0  0
  2  1  1  0  0  0  0
  2 12  1  0  0  0  0
  2  3  2  0  0  0  0
  4  5  2  0  0  0  0
  5  7  1  0  0  0  0
  5 20  1  0  0  0  0
  6  4  1  0  0  0  0
  6  9  1  0  0  0  0
  7 10  2  0  0  0  0
  7 21  1  0  0  0  0
  8  6  2  0  0  0  0
  8 22  1  0  0  0  0
 10  8  1  0  0  0  0
 10 11  1  0  0  0  0
 12 13  2  0  0  0  0
 13 15  1  0  0  0  0
 13 23  1  0  0  0  0
 14 12  1  0  0  0  0
 14 24  1  0  0  0  0
 15 17  2  0  0  0  0
 15 25  1  0  0  0  0
 16 14  2  0  0  0  0
 16 26  1  0  0  0  0
 17 16  1  0  0  0  0
 17 18  1  0  0  0  0
 18 27  1  0  0  0  0
 18 28  1  0  0  0  0
 18 29  1  0  0  0  0
M  END
>  <minimizedAffinity>
-7.87815

$$$$

 OpenBabel07052409263D

 32 33  0  0  0  0  0  0  0  0999 V2000
  -48.1509   -2.3663  -24.1786 C   0  0  0  0  0  0  0  0  0  0  0  0
  -47.8821   -2.9665  -22.9783 N   0  0  0  0  0  0  0  0  0  0  0  0
  -47.4483   -2.5298  -25.1702 O   0  0  0  0  0  0  0  0  0  0  0  0
  -47.2726   -2.2077  -22.0173 C   0  0  0  0  0  0  0  0  0  0  0  0
  -46.0596   -2.1908  -21.8507 O   0  0  0  0  0  0  0  0  0  0  0  0
  -49.4582   -1.6601  -24.2306 C   0  0  0  0  0  0  0  0  0  0  0  0
  -49.4380   -0.4166  -24.7557 C   0  0  0  0  0  0  0  0  0  0  0  0
  -50.5572   -2.0534  -23.3604 C   0  0  0  0  0  0  0  0  0  0  0  0
  -50.3688    0.6005  -24.2728 C   0  0  0  0  0  0  0  0  0  0  0  0
  -51.4637   -1.1397  -22.9650 C   0  0  0  0  0  0  0  0  0  0  0  0
  -50.6045   -3.3776  -23.0012 O   0  0  0  0  0  0  0  0  0  0  0  0
  -50.2032    2.5486  -24.9311 I   0  0  0  0  0  0  0  0  0  0  0  0
  -51.3461    0.2387  -23.4173 C   0  0  0  0  0  0  0  0  0  0  0  0
  -48.2101   -1.5297  -21.0839 C   0  0  0  0  0  0  0  0  0  0  0  0
  -48.8190   -2.2588  -20.1277 C   0  0  0  0  0  0  0  0  0  0  0  0
  -48.3251   -0.0788  -21.0687 C   0  0  0  0  0  0  0  0  0  0  0  0
  -49.7490   -1.6150  -19.2117 C   0  0  0  0  0  0  0  0  0  0  0  0
  -49.1414    0.5224  -20.1832 C   0  0  0  0  0  0  0  0  0  0  0  0
  -49.9117   -0.2755  -19.2316 C   0  0  0  0  0  0  0  0  0  0  0  0
  -50.8361    0.4560  -18.3053 C   0  0  0  0  0  0  0  0  0  0  0  0
  -48.1183   -3.9079  -22.8130 H   0  0  0  0  0  0  0  0  0  0  0  0
  -48.7628   -0.1838  -25.5007 H   0  0  0  0  0  0  0  0  0  0  0  0
  -52.2396   -1.4159  -22.3431 H   0  0  0  0  0  0  0  0  0  0  0  0
  -49.9455   -3.9697  -23.3064 H   0  0  0  0  0  0  0  0  0  0  0  0
  -52.0174    0.9461  -23.0798 H   0  0  0  0  0  0  0  0  0  0  0  0
  -48.6266   -3.2694  -20.0454 H   0  0  0  0  0  0  0  0  0  0  0  0
  -47.7808    0.4890  -21.7368 H   0  0  0  0  0  0  0  0  0  0  0  0
  -50.2877   -2.1868  -18.5424 H   0  0  0  0  0  0  0  0  0  0  0  0
  -49.2236    1.5511  -20.1763 H   0  0  0  0  0  0  0  0  0  0  0  0
  -51.3321   -0.2463  -17.6684 H   0  0  0  0  0  0  0  0  0  0  0  0
  -51.5629    0.9935  -18.8778 H   0  0  0  0  0  0  0  0  0  0  0  0
  -50.2731    1.1429  -17.7085 H   0  0  0  0  0  0  0  0  0  0  0  0
  1  6  1  0  0  0  0
  1  2  1  0  0  0  0
  1  3  2  0  0  0  0
  2 21  1  0  0  0  0
  4  2  1  0  0  0  0
  4 14  1  0  0  0  0
  4  5  2  0  0  0  0
  6  7  2  0  0  0  0
  7  9  1  0  0  0  0
  7 22  1  0  0  0  0
  8  6  1  0  0  0  0
  8 11  1  0  0  0  0
  9 12  1  0  0  0  0
  9 13  2  0  0  0  0
 10  8  2  0  0  0  0
 10 23  1  0  0  0  0
 11 24  1  0  0  0  0
 13 10  1  0  0  0  0
 13 25  1  0  0  0  0
 14 15  2  0  0  0  0
 15 17  1  0  0  0  0
 15 26  1  0  0  0  0
 16 14  1  0  0  0  0
 16 27  1  0  0  0  0
 17 19  2  0  0  0  0
 17 28  1  0  0  0  0
 18 16  2  0  0  0  0
 18 29  1  0  0  0  0
 19 18  1  0  0  0  0
 19 20  1  0  0  0  0
 20 30  1  0  0  0  0
 20 31  1  0  0  0  0
 20 32  1  0  0  0  0
M  END
>  <minimizedAffinity>
-6.58425

$$$$

 OpenBabel07052409263D

 31 32  0  0  0  0  0  0  0  0999 V2000
  -51.7131    0.9196  -23.4879 C   0  0  0  0  0  0  0  0  0  0  0  0
  -50.7690    1.1634  -22.5333 N   0  0  0  0  0  0  0  0  0  0  0  0
  -52.9091    1.1279  -23.3238 O   0  0  0  0  0  0  0  0  0  0  0  0
  -50.6721    0.1944  -21.5708 C   0  0  0  0  0  0  0  0  0  0  0  0
  -50.2144   -0.9272  -21.7572 O   0  0  0  0  0  0  0  0  0  0  0  0
  -51.1415    0.4575  -24.7777 C   0  0  0  0  0  0  0  0  0  0  0  0
  -51.2487   -0.8643  -25.0266 C   0  0  0  0  0  0  0  0  0  0  0  0
  -50.9468    1.3865  -25.8901 C   0  0  0  0  0  0  0  0  0  0  0  0
  -51.5262   -1.3193  -26.3782 C   0  0  0  0  0  0  0  0  0  0  0  0
  -51.1158    0.9414  -27.1520 C   0  0  0  0  0  0  0  0  0  0  0  0
  -50.4091    3.1395  -25.5363 Br  0  0  0  0  0  0  0  0  0  0  0  0
  -51.4660   -0.4484  -27.4007 C   0  0  0  0  0  0  0  0  0  0  0  0
  -51.1310    0.6332  -20.2267 C   0  0  0  0  0  0  0  0  0  0  0  0
  -50.5988    0.0043  -19.1615 C   0  0  0  0  0  0  0  0  0  0  0  0
  -51.8406    1.8898  -20.0462 C   0  0  0  0  0  0  0  0  0  0  0  0
  -50.4844    0.7126  -17.8966 C   0  0  0  0  0  0  0  0  0  0  0  0
  -51.7959    2.5144  -18.8553 C   0  0  0  0  0  0  0  0  0  0  0  0
  -51.0608    1.9224  -17.7391 C   0  0  0  0  0  0  0  0  0  0  0  0
  -51.0037    2.7021  -16.4618 C   0  0  0  0  0  0  0  0  0  0  0  0
  -50.2040    1.9697  -22.5364 H   0  0  0  0  0  0  0  0  0  0  0  0
  -51.1343   -1.5477  -24.2618 H   0  0  0  0  0  0  0  0  0  0  0  0
  -51.7686   -2.3071  -26.5527 H   0  0  0  0  0  0  0  0  0  0  0  0
  -50.9960    1.5903  -27.9454 H   0  0  0  0  0  0  0  0  0  0  0  0
  -51.6682   -0.7658  -28.3617 H   0  0  0  0  0  0  0  0  0  0  0  0
  -50.2748   -0.9722  -19.2422 H   0  0  0  0  0  0  0  0  0  0  0  0
  -52.3756    2.3002  -20.8274 H   0  0  0  0  0  0  0  0  0  0  0  0
  -49.9599    0.2880  -17.1158 H   0  0  0  0  0  0  0  0  0  0  0  0
  -52.2828    3.4155  -18.7293 H   0  0  0  0  0  0  0  0  0  0  0  0
  -50.4388    2.1560  -15.7355 H   0  0  0  0  0  0  0  0  0  0  0  0
  -51.9966    2.8604  -16.0959 H   0  0  0  0  0  0  0  0  0  0  0  0
  -50.5349    3.6470  -16.6414 H   0  0  0  0  0  0  0  0  0  0  0  0
  1  6  1  0  0  0  0
  1  2  1  0  0  0  0
  1  3  2  0  0  0  0
  2 20  1  0  0  0  0
  4  2  1  0  0  0  0
  4 13  1  0  0  0  0
  4  5  2  0  0  0  0
  6  7  2  0  0  0  0
  7  9  1  0  0  0  0
  7 21  1  0  0  0  0
  8  6  1  0  0  0  0
  8 11  1  0  0  0  0
  9 12  2  0  0  0  0
  9 22  1  0  0  0  0
 10  8  2  0  0  0  0
 10 23  1  0  0  0  0
 12 10  1  0  0  0  0
 12 24  1  0  0  0  0
 13 14  2  0  0  0  0
 14 16  1  0  0  0  0
 14 25  1  0  0  0  0
 15 13  1  0  0  0  0
 15 26  1  0  0  0  0
 16 18  2  0  0  0  0
 16 27  1  0  0  0  0
 17 15  2  0  0  0  0
 17 28  1  0  0  0  0
 18 17  1  0  0  0  0
 18 19  1  0  0  0  0
 19 29  1  0  0  0  0
 19 30  1  0  0  0  0
 19 31  1  0  0  0  0
M  END
>  <minimizedAffinity>
-7.84092

$$$$

 OpenBabel07052409263D

 34 35  0  0  0  0  0  0  0  0999 V2000
  -50.5963    0.3866  -20.6766 C   0  0  0  0  0  0  0  0  0  0  0  0
  -50.8780    1.5328  -21.3720 N   0  0  0  0  0  0  0  0  0  0  0  0
  -50.2241   -0.6653  -21.1835 O   0  0  0  0  0  0  0  0  0  0  0  0
  -52.0194    1.4737  -22.1165 C   0  0  0  0  0  0  0  0  0  0  0  0
  -53.1429    1.5978  -21.6435 O   0  0  0  0  0  0  0  0  0  0  0  0
  -50.7291    0.5315  -19.2027 C   0  0  0  0  0  0  0  0  0  0  0  0
  -50.0767   -0.3630  -18.4361 C   0  0  0  0  0  0  0  0  0  0  0  0
  -51.2456    1.7545  -18.6091 C   0  0  0  0  0  0  0  0  0  0  0  0
  -49.6454    0.0195  -17.1010 C   0  0  0  0  0  0  0  0  0  0  0  0
  -50.9054    2.0779  -17.3483 C   0  0  0  0  0  0  0  0  0  0  0  0
  -50.0424    1.1935  -16.5674 C   0  0  0  0  0  0  0  0  0  0  0  0
  -49.6577    1.6453  -15.1923 C   0  0  0  0  0  0  0  0  0  0  0  0
  -51.7740    1.3673  -23.5756 C   0  0  0  0  0  0  0  0  0  0  0  0
  -50.7122    2.0008  -24.1087 C   0  0  0  0  0  0  0  0  0  0  0  0
  -52.6254    0.5374  -24.4143 C   0  0  0  0  0  0  0  0  0  0  0  0
  -50.4820    1.9412  -25.5435 C   0  0  0  0  0  0  0  0  0  0  0  0
  -52.3930    0.4612  -25.7374 C   0  0  0  0  0  0  0  0  0  0  0  0
  -51.2866    1.2040  -26.3364 C   0  0  0  0  0  0  0  0  0  0  0  0
  -51.1063    1.0977  -27.8190 C   0  0  0  0  0  0  0  0  0  0  0  0
  -50.3046    2.3323  -21.3373 H   0  0  0  0  0  0  0  0  0  0  0  0
  -49.8844   -1.3120  -18.7931 H   0  0  0  0  0  0  0  0  0  0  0  0
  -51.8699    2.3712  -19.1522 H   0  0  0  0  0  0  0  0  0  0  0  0
  -49.0328   -0.6099  -16.5591 H   0  0  0  0  0  0  0  0  0  0  0  0
  -51.2553    2.9543  -16.9306 H   0  0  0  0  0  0  0  0  0  0  0  0
  -49.0296    0.9081  -14.7374 H   0  0  0  0  0  0  0  0  0  0  0  0
  -50.5393    1.7770  -14.6005 H   0  0  0  0  0  0  0  0  0  0  0  0
  -49.1293    2.5735  -15.2566 H   0  0  0  0  0  0  0  0  0  0  0  0
  -50.0642    2.5266  -23.5015 H   0  0  0  0  0  0  0  0  0  0  0  0
  -53.4060    0.0082  -23.9952 H   0  0  0  0  0  0  0  0  0  0  0  0
  -49.6969    2.4671  -25.9583 H   0  0  0  0  0  0  0  0  0  0  0  0
  -52.9994   -0.1249  -26.3322 H   0  0  0  0  0  0  0  0  0  0  0  0
  -50.2656    1.6876  -28.1193 H   0  0  0  0  0  0  0  0  0  0  0  0
  -51.9865    1.4544  -28.3118 H   0  0  0  0  0  0  0  0  0  0  0  0
  -50.9380    0.0752  -28.0854 H   0  0  0  0  0  0  0  0  0  0  0  0
  1  6  1  0  0  0  0
  1  2  1  0  0  0  0
  1  3  2  0  0  0  0
  2 20  1  0  0  0  0
  4  2  1  0  0  0  0
  4 13  1  0  0  0  0
  4  5  2  0  0  0  0
  6  7  2  0  0  0  0
  7  9  1  0  0  0  0
  7 21  1  0  0  0  0
  8  6  1  0  0  0  0
  8 22  1  0  0  0  0
  9 11  2  0  0  0  0
  9 23  1  0  0  0  0
 10  8  2  0  0  0  0
 10 24  1  0  0  0  0
 11 10  1  0  0  0  0
 11 12  1  0  0  0  0
 12 25  1  0  0  0  0
 12 26  1  0  0  0  0
 12 27  1  0  0  0  0
 13 14  2  0  0  0  0
 14 16  1  0  0  0  0
 14 28  1  0  0  0  0
 15 13  1  0  0  0  0
 15 29  1  0  0  0  0
 16 18  2  0  0  0  0
 16 30  1  0  0  0  0
 17 15  2  0  0  0  0
 17 31  1  0  0  0  0
 18 17  1  0  0  0  0
 18 19  1  0  0  0  0
 19 32  1  0  0  0  0
 19 33  1  0  0  0  0
 19 34  1  0  0  0  0
M  END
>  <minimizedAffinity>
-8.05109

$$$$

 OpenBabel07052409263D

 31 32  0  0  0  0  0  0  0  0999 V2000
  -49.0616   -0.4007  -20.8747 C   0  0  0  0  0  0  0  0  0  0  0  0
  -49.6799   -1.6157  -21.0154 N   0  0  0  0  0  0  0  0  0  0  0  0
  -47.8530   -0.2184  -20.9414 O   0  0  0  0  0  0  0  0  0  0  0  0
  -49.4632   -2.3036  -22.1767 C   0  0  0  0  0  0  0  0  0  0  0  0
  -48.9548   -3.4194  -22.1881 O   0  0  0  0  0  0  0  0  0  0  0  0
  -50.0085    0.7015  -20.5788 C   0  0  0  0  0  0  0  0  0  0  0  0
  -50.8086    1.1080  -21.5851 C   0  0  0  0  0  0  0  0  0  0  0  0
  -50.2710    1.1575  -19.2200 C   0  0  0  0  0  0  0  0  0  0  0  0
  -52.0988    1.7025  -21.2759 C   0  0  0  0  0  0  0  0  0  0  0  0
  -51.4260    1.7949  -18.9467 C   0  0  0  0  0  0  0  0  0  0  0  0
  -49.0971    0.9033  -17.9834 Cl  0  0  0  0  0  0  0  0  0  0  0  0
  -52.3946    2.0352  -20.0066 C   0  0  0  0  0  0  0  0  0  0  0  0
  -49.9552   -1.6508  -23.4160 C   0  0  0  0  0  0  0  0  0  0  0  0
  -51.2744   -1.6731  -23.6833 C   0  0  0  0  0  0  0  0  0  0  0  0
  -49.0586   -0.8614  -24.2457 C   0  0  0  0  0  0  0  0  0  0  0  0
  -51.8306   -0.7074  -24.6183 C   0  0  0  0  0  0  0  0  0  0  0  0
  -49.5683   -0.0159  -25.1598 C   0  0  0  0  0  0  0  0  0  0  0  0
  -51.0161    0.0965  -25.3331 C   0  0  0  0  0  0  0  0  0  0  0  0
  -51.5121    1.1024  -26.3253 C   0  0  0  0  0  0  0  0  0  0  0  0
  -50.2584   -1.9794  -20.3067 H   0  0  0  0  0  0  0  0  0  0  0  0
  -50.5078    0.9981  -22.5661 H   0  0  0  0  0  0  0  0  0  0  0  0
  -52.7856    1.8687  -22.0280 H   0  0  0  0  0  0  0  0  0  0  0  0
  -51.6243    2.1131  -17.9852 H   0  0  0  0  0  0  0  0  0  0  0  0
  -53.3081    2.4608  -19.7841 H   0  0  0  0  0  0  0  0  0  0  0  0
  -51.8858   -2.3693  -23.2288 H   0  0  0  0  0  0  0  0  0  0  0  0
  -48.0365   -0.9494  -24.1338 H   0  0  0  0  0  0  0  0  0  0  0  0
  -52.8535   -0.6368  -24.7355 H   0  0  0  0  0  0  0  0  0  0  0  0
  -48.9352    0.5555  -25.7409 H   0  0  0  0  0  0  0  0  0  0  0  0
  -52.5815    1.0800  -26.3517 H   0  0  0  0  0  0  0  0  0  0  0  0
  -51.1264    0.8669  -27.2952 H   0  0  0  0  0  0  0  0  0  0  0  0
  -51.1828    2.0791  -26.0380 H   0  0  0  0  0  0  0  0  0  0  0  0
  1  6  1  0  0  0  0
  1  2  1  0  0  0  0
  1  3  2  0  0  0  0
  2 20  1  0  0  0  0
  4  2  1  0  0  0  0
  4 13  1  0  0  0  0
  4  5  2  0  0  0  0
  6  7  2  0  0  0  0
  7  9  1  0  0  0  0
  7 21  1  0  0  0  0
  8  6  1  0  0  0  0
  8 11  1  0  0  0  0
  9 12  2  0  0  0  0
  9 22  1  0  0  0  0
 10  8  2  0  0  0  0
 10 23  1  0  0  0  0
 12 10  1  0  0  0  0
 12 24  1  0  0  0  0
 13 14  2  0  0  0  0
 14 16  1  0  0  0  0
 14 25  1  0  0  0  0
 15 13  1  0  0  0  0
 15 26  1  0  0  0  0
 16 18  2  0  0  0  0
 16 27  1  0  0  0  0
 17 15  2  0  0  0  0
 17 28  1  0  0  0  0
 18 17  1  0  0  0  0
 18 19  1  0  0  0  0
 19 29  1  0  0  0  0
 19 30  1  0  0  0  0
 19 31  1  0  0  0  0
M  END
>  <minimizedAffinity>
-7.60568

$$$$

 OpenBabel07052409263D

 31 32  0  0  0  0  0  0  0  0999 V2000
  -49.8093   -1.1063  -22.3470 C   0  0  0  0  0  0  0  0  0  0  0  0
  -48.7734   -1.0167  -23.2380 N   0  0  0  0  0  0  0  0  0  0  0  0
  -50.3875   -2.1454  -22.0588 O   0  0  0  0  0  0  0  0  0  0  0  0
  -49.0566   -1.2763  -24.5505 C   0  0  0  0  0  0  0  0  0  0  0  0
  -48.5884   -2.2383  -25.1483 O   0  0  0  0  0  0  0  0  0  0  0  0
  -50.1483    0.1849  -21.6964 C   0  0  0  0  0  0  0  0  0  0  0  0
  -49.2840    0.6346  -20.7641 C   0  0  0  0  0  0  0  0  0  0  0  0
  -51.4898    0.7538  -21.7543 C   0  0  0  0  0  0  0  0  0  0  0  0
  -49.8050    1.3130  -19.5875 C   0  0  0  0  0  0  0  0  0  0  0  0
  -51.9494    1.4776  -20.7152 C   0  0  0  0  0  0  0  0  0  0  0  0
  -52.4500    0.5354  -23.1671 Cl  0  0  0  0  0  0  0  0  0  0  0  0
  -51.0910    1.7098  -19.5640 C   0  0  0  0  0  0  0  0  0  0  0  0
  -51.7482    2.5212  -18.1966 Cl  0  0  0  0  0  0  0  0  0  0  0  0
  -49.8948   -0.2610  -25.2358 C   0  0  0  0  0  0  0  0  0  0  0  0
  -50.8420   -0.6719  -26.1003 C   0  0  0  0  0  0  0  0  0  0  0  0
  -49.6316    1.1591  -25.0667 C   0  0  0  0  0  0  0  0  0  0  0  0
  -51.3948    0.2752  -27.0563 C   0  0  0  0  0  0  0  0  0  0  0  0
  -50.1994    2.0457  -25.9049 C   0  0  0  0  0  0  0  0  0  0  0  0
  -51.0932    1.5878  -26.9674 C   0  0  0  0  0  0  0  0  0  0  0  0
  -51.6404    2.6225  -27.9013 C   0  0  0  0  0  0  0  0  0  0  0  0
  -47.8644   -0.7759  -22.9465 H   0  0  0  0  0  0  0  0  0  0  0  0
  -48.2679    0.4995  -20.8836 H   0  0  0  0  0  0  0  0  0  0  0  0
  -49.1924    1.4890  -18.7758 H   0  0  0  0  0  0  0  0  0  0  0  0
  -52.9056    1.8653  -20.7358 H   0  0  0  0  0  0  0  0  0  0  0  0
  -51.1726   -1.6494  -26.0848 H   0  0  0  0  0  0  0  0  0  0  0  0
  -49.0127    1.4853  -24.3080 H   0  0  0  0  0  0  0  0  0  0  0  0
  -52.0206   -0.0582  -27.8061 H   0  0  0  0  0  0  0  0  0  0  0  0
  -50.0031    3.0531  -25.7972 H   0  0  0  0  0  0  0  0  0  0  0  0
  -52.2743    2.1517  -28.6234 H   0  0  0  0  0  0  0  0  0  0  0  0
  -50.8325    3.1137  -28.4023 H   0  0  0  0  0  0  0  0  0  0  0  0
  -52.2054    3.3415  -27.3456 H   0  0  0  0  0  0  0  0  0  0  0  0
  1  6  1  0  0  0  0
  1  2  1  0  0  0  0
  1  3  2  0  0  0  0
  2 21  1  0  0  0  0
  4  2  1  0  0  0  0
  4 14  1  0  0  0  0
  4  5  2  0  0  0  0
  6  7  2  0  0  0  0
  7  9  1  0  0  0  0
  7 22  1  0  0  0  0
  8  6  1  0  0  0  0
  8 11  1  0  0  0  0
  9 12  2  0  0  0  0
  9 23  1  0  0  0  0
 10  8  2  0  0  0  0
 10 24  1  0  0  0  0
 12 10  1  0  0  0  0
 12 13  1  0  0  0  0
 14 15  2  0  0  0  0
 15 17  1  0  0  0  0
 15 25  1  0  0  0  0
 16 14  1  0  0  0  0
 16 26  1  0  0  0  0
 17 19  2  0  0  0  0
 17 27  1  0  0  0  0
 18 16  2  0  0  0  0
 18 28  1  0  0  0  0
 19 18  1  0  0  0  0
 19 20  1  0  0  0  0
 20 29  1  0  0  0  0
 20 30  1  0  0  0  0
 20 31  1  0  0  0  0
M  END
>  <minimizedAffinity>
-7.69190

$$$$

 OpenBabel07052409263D

 31 32  0  0  0  0  0  0  0  0999 V2000
  -50.3574    0.6735  -20.6118 C   0  0  0  0  0  0  0  0  0  0  0  0
  -50.7728    1.7282  -21.3797 N   0  0  0  0  0  0  0  0  0  0  0  0
  -49.8528   -0.3538  -21.0483 O   0  0  0  0  0  0  0  0  0  0  0  0
  -51.9068    1.4868  -22.0989 C   0  0  0  0  0  0  0  0  0  0  0  0
  -53.0294    1.4860  -21.6087 O   0  0  0  0  0  0  0  0  0  0  0  0
  -50.5073    0.8988  -19.1490 C   0  0  0  0  0  0  0  0  0  0  0  0
  -51.3110    1.8935  -18.7245 C   0  0  0  0  0  0  0  0  0  0  0  0
  -49.6703    0.1792  -18.1987 C   0  0  0  0  0  0  0  0  0  0  0  0
  -51.1752    2.3929  -17.3639 C   0  0  0  0  0  0  0  0  0  0  0  0
  -49.5899    0.6064  -16.9244 C   0  0  0  0  0  0  0  0  0  0  0  0
  -50.3485    1.7732  -16.5014 C   0  0  0  0  0  0  0  0  0  0  0  0
  -50.1695    2.3257  -14.8819 Cl  0  0  0  0  0  0  0  0  0  0  0  0
  -51.6696    1.3399  -23.5556 C   0  0  0  0  0  0  0  0  0  0  0  0
  -50.6138    1.9610  -24.1148 C   0  0  0  0  0  0  0  0  0  0  0  0
  -52.5499    0.5194  -24.3735 C   0  0  0  0  0  0  0  0  0  0  0  0
  -50.4427    1.9319  -25.5588 C   0  0  0  0  0  0  0  0  0  0  0  0
  -52.3658    0.4619  -25.7051 C   0  0  0  0  0  0  0  0  0  0  0  0
  -51.2820    1.2143  -26.3335 C   0  0  0  0  0  0  0  0  0  0  0  0
  -51.1637    1.1394  -27.8245 C   0  0  0  0  0  0  0  0  0  0  0  0
  -50.2939    2.5878  -21.4103 H   0  0  0  0  0  0  0  0  0  0  0  0
  -52.0173    2.2981  -19.3589 H   0  0  0  0  0  0  0  0  0  0  0  0
  -49.1415   -0.6540  -18.5006 H   0  0  0  0  0  0  0  0  0  0  0  0
  -51.7119    3.2207  -17.0612 H   0  0  0  0  0  0  0  0  0  0  0  0
  -48.9909    0.1067  -16.2487 H   0  0  0  0  0  0  0  0  0  0  0  0
  -49.9292    2.4554  -23.5215 H   0  0  0  0  0  0  0  0  0  0  0  0
  -53.3137   -0.0172  -23.9333 H   0  0  0  0  0  0  0  0  0  0  0  0
  -49.6733    2.4644  -25.9941 H   0  0  0  0  0  0  0  0  0  0  0  0
  -52.9931   -0.1165  -26.2856 H   0  0  0  0  0  0  0  0  0  0  0  0
  -50.3338    1.7331  -28.1467 H   0  0  0  0  0  0  0  0  0  0  0  0
  -52.0622    1.5093  -28.2726 H   0  0  0  0  0  0  0  0  0  0  0  0
  -51.0105    0.1223  -28.1195 H   0  0  0  0  0  0  0  0  0  0  0  0
  1  6  1  0  0  0  0
  1  2  1  0  0  0  0
  1  3  2  0  0  0  0
  2 20  1  0  0  0  0
  4  2  1  0  0  0  0
  4 13  1  0  0  0  0
  4  5  2  0  0  0  0
  6  7  2  0  0  0  0
  7  9  1  0  0  0  0
  7 21  1  0  0  0  0
  8  6  1  0  0  0  0
  8 22  1  0  0  0  0
  9 11  2  0  0  0  0
  9 23  1  0  0  0  0
 10  8  2  0  0  0  0
 10 24  1  0  0  0  0
 11 10  1  0  0  0  0
 11 12  1  0  0  0  0
 13 14  2  0  0  0  0
 14 16  1  0  0  0  0
 14 25  1  0  0  0  0
 15 13  1  0  0  0  0
 15 26  1  0  0  0  0
 16 18  2  0  0  0  0
 16 27  1  0  0  0  0
 17 15  2  0  0  0  0
 17 28  1  0  0  0  0
 18 17  1  0  0  0  0
 18 19  1  0  0  0  0
 19 29  1  0  0  0  0
 19 30  1  0  0  0  0
 19 31  1  0  0  0  0
M  END
>  <minimizedAffinity>
-8.03058

$$$$

 OpenBabel07052409263D

 31 32  0  0  0  0  0  0  0  0999 V2000
  -49.2416   -1.3358  -24.5533 C   0  0  0  0  0  0  0  0  0  0  0  0
  -49.9174   -2.1060  -23.6457 N   0  0  0  0  0  0  0  0  0  0  0  0
  -48.0776   -1.5210  -24.8819 O   0  0  0  0  0  0  0  0  0  0  0  0
  -49.5889   -1.9482  -22.3280 C   0  0  0  0  0  0  0  0  0  0  0  0
  -49.0676   -2.8446  -21.6733 O   0  0  0  0  0  0  0  0  0  0  0  0
  -50.0862   -0.2934  -25.1921 C   0  0  0  0  0  0  0  0  0  0  0  0
  -50.9419   -0.6769  -26.1584 C   0  0  0  0  0  0  0  0  0  0  0  0
  -49.8824    1.1245  -24.9291 C   0  0  0  0  0  0  0  0  0  0  0  0
  -51.4040    0.3005  -27.1327 C   0  0  0  0  0  0  0  0  0  0  0  0
  -50.3791    2.0380  -25.7854 C   0  0  0  0  0  0  0  0  0  0  0  0
  -51.1359    1.6092  -26.9572 C   0  0  0  0  0  0  0  0  0  0  0  0
  -51.7029    2.9132  -28.1617 Br  0  0  0  0  0  0  0  0  0  0  0  0
  -49.9946   -0.6583  -21.7155 C   0  0  0  0  0  0  0  0  0  0  0  0
  -51.2454   -0.2170  -21.9545 C   0  0  0  0  0  0  0  0  0  0  0  0
  -49.1333    0.0573  -20.7855 C   0  0  0  0  0  0  0  0  0  0  0  0
  -51.8149    0.8163  -21.1033 C   0  0  0  0  0  0  0  0  0  0  0  0
  -49.6427    1.0614  -20.0465 C   0  0  0  0  0  0  0  0  0  0  0  0
  -51.0494    1.4402  -20.1822 C   0  0  0  0  0  0  0  0  0  0  0  0
  -51.5609    2.5137  -19.2719 C   0  0  0  0  0  0  0  0  0  0  0  0
  -50.6099   -2.7457  -23.9294 H   0  0  0  0  0  0  0  0  0  0  0  0
  -51.2671   -1.6551  -26.2077 H   0  0  0  0  0  0  0  0  0  0  0  0
  -49.3607    1.4275  -24.0918 H   0  0  0  0  0  0  0  0  0  0  0  0
  -51.9381   -0.0094  -27.9596 H   0  0  0  0  0  0  0  0  0  0  0  0
  -50.2241    3.0435  -25.6124 H   0  0  0  0  0  0  0  0  0  0  0  0
  -51.7949   -0.6090  -22.7352 H   0  0  0  0  0  0  0  0  0  0  0  0
  -48.1390   -0.2030  -20.6930 H   0  0  0  0  0  0  0  0  0  0  0  0
  -52.8092    1.0739  -21.2039 H   0  0  0  0  0  0  0  0  0  0  0  0
  -49.0373    1.5666  -19.3807 H   0  0  0  0  0  0  0  0  0  0  0  0
  -52.5962    2.6909  -19.4759 H   0  0  0  0  0  0  0  0  0  0  0  0
  -51.0060    3.4139  -19.4350 H   0  0  0  0  0  0  0  0  0  0  0  0
  -51.4459    2.2032  -18.2544 H   0  0  0  0  0  0  0  0  0  0  0  0
  1  6  1  0  0  0  0
  1  2  1  0  0  0  0
  1  3  2  0  0  0  0
  2 20  1  0  0  0  0
  4  2  1  0  0  0  0
  4 13  1  0  0  0  0
  4  5  2  0  0  0  0
  6  7  2  0  0  0  0
  7  9  1  0  0  0  0
  7 21  1  0  0  0  0
  8  6  1  0  0  0  0
  8 22  1  0  0  0  0
  9 11  2  0  0  0  0
  9 23  1  0  0  0  0
 10  8  2  0  0  0  0
 10 24  1  0  0  0  0
 11 10  1  0  0  0  0
 11 12  1  0  0  0  0
 13 14  2  0  0  0  0
 14 16  1  0  0  0  0
 14 25  1  0  0  0  0
 15 13  1  0  0  0  0
 15 26  1  0  0  0  0
 16 18  2  0  0  0  0
 16 27  1  0  0  0  0
 17 15  2  0  0  0  0
 17 28  1  0  0  0  0
 18 17  1  0  0  0  0
 18 19  1  0  0  0  0
 19 29  1  0  0  0  0
 19 30  1  0  0  0  0
 19 31  1  0  0  0  0
M  END
>  <minimizedAffinity>
-8.06013

$$$$

 OpenBabel07052409263D

 32 33  0  0  0  0  0  0  0  0999 V2000
  -49.0675   -0.4072  -20.8322 C   0  0  0  0  0  0  0  0  0  0  0  0
  -49.7876   -1.5530  -21.0321 N   0  0  0  0  0  0  0  0  0  0  0  0
  -47.8452   -0.3178  -20.8778 O   0  0  0  0  0  0  0  0  0  0  0  0
  -49.5310   -2.2551  -22.1764 C   0  0  0  0  0  0  0  0  0  0  0  0
  -49.0331   -3.3749  -22.1646 O   0  0  0  0  0  0  0  0  0  0  0  0
  -49.8842    0.7503  -20.3909 C   0  0  0  0  0  0  0  0  0  0  0  0
  -50.7663    1.3088  -21.2437 C   0  0  0  0  0  0  0  0  0  0  0  0
  -49.9669    1.0800  -18.9723 C   0  0  0  0  0  0  0  0  0  0  0  0
  -52.0186    1.8326  -20.7191 C   0  0  0  0  0  0  0  0  0  0  0  0
  -51.0769    1.6638  -18.4889 C   0  0  0  0  0  0  0  0  0  0  0  0
  -48.8780    0.8208  -18.1711 O   0  0  0  0  0  0  0  0  0  0  0  0
  -52.1684    1.9985  -19.3915 C   0  0  0  0  0  0  0  0  0  0  0  0
  -49.9892   -1.6088  -23.4311 C   0  0  0  0  0  0  0  0  0  0  0  0
  -51.3121   -1.5433  -23.6732 C   0  0  0  0  0  0  0  0  0  0  0  0
  -49.0557   -0.9082  -24.2983 C   0  0  0  0  0  0  0  0  0  0  0  0
  -51.8163   -0.5619  -24.6210 C   0  0  0  0  0  0  0  0  0  0  0  0
  -49.5223   -0.0506  -25.2238 C   0  0  0  0  0  0  0  0  0  0  0  0
  -50.9611    0.1613  -25.3736 C   0  0  0  0  0  0  0  0  0  0  0  0
  -51.4063    1.1748  -26.3822 C   0  0  0  0  0  0  0  0  0  0  0  0
  -50.4602   -1.8581  -20.3812 H   0  0  0  0  0  0  0  0  0  0  0  0
  -50.5568    1.3640  -22.2527 H   0  0  0  0  0  0  0  0  0  0  0  0
  -52.7884    2.0758  -21.3619 H   0  0  0  0  0  0  0  0  0  0  0  0
  -51.1549    1.8739  -17.4815 H   0  0  0  0  0  0  0  0  0  0  0  0
  -48.1163    0.4127  -18.5334 H   0  0  0  0  0  0  0  0  0  0  0  0
  -53.0570    2.3629  -19.0139 H   0  0  0  0  0  0  0  0  0  0  0  0
  -51.9622   -2.1834  -23.1908 H   0  0  0  0  0  0  0  0  0  0  0  0
  -48.0405   -1.0680  -24.2043 H   0  0  0  0  0  0  0  0  0  0  0  0
  -52.8336   -0.4179  -24.7184 H   0  0  0  0  0  0  0  0  0  0  0  0
  -48.8618    0.4599  -25.8306 H   0  0  0  0  0  0  0  0  0  0  0  0
  -52.4750    1.2274  -26.3871 H   0  0  0  0  0  0  0  0  0  0  0  0
  -51.0588    0.8885  -27.3529 H   0  0  0  0  0  0  0  0  0  0  0  0
  -51.0032    2.1326  -26.1272 H   0  0  0  0  0  0  0  0  0  0  0  0
  1  6  1  0  0  0  0
  1  2  1  0  0  0  0
  1  3  2  0  0  0  0
  2 20  1  0  0  0  0
  4  2  1  0  0  0  0
  4 13  1  0  0  0  0
  4  5  2  0  0  0  0
  6  7  2  0  0  0  0
  7  9  1  0  0  0  0
  7 21  1  0  0  0  0
  8  6  1  0  0  0  0
  8 11  1  0  0  0  0
  9 12  2  0  0  0  0
  9 22  1  0  0  0  0
 10  8  2  0  0  0  0
 10 23  1  0  0  0  0
 11 24  1  0  0  0  0
 12 10  1  0  0  0  0
 12 25  1  0  0  0  0
 13 14  2  0  0  0  0
 14 16  1  0  0  0  0
 14 26  1  0  0  0  0
 15 13  1  0  0  0  0
 15 27  1  0  0  0  0
 16 18  2  0  0  0  0
 16 28  1  0  0  0  0
 17 15  2  0  0  0  0
 17 29  1  0  0  0  0
 18 17  1  0  0  0  0
 18 19  1  0  0  0  0
 19 30  1  0  0  0  0
 19 31  1  0  0  0  0
 19 32  1  0  0  0  0
M  END
>  <minimizedAffinity>
-7.38156

$$$$

 OpenBabel07052409263D

 31 32  0  0  0  0  0  0  0  0999 V2000
  -50.2802    0.7750  -23.7665 C   0  0  0  0  0  0  0  0  0  0  0  0
  -50.6962    1.8368  -23.0097 N   0  0  0  0  0  0  0  0  0  0  0  0
  -49.4778   -0.0693  -23.3856 O   0  0  0  0  0  0  0  0  0  0  0  0
  -51.7110    1.5557  -22.1431 C   0  0  0  0  0  0  0  0  0  0  0  0
  -52.8786    1.4199  -22.4878 O   0  0  0  0  0  0  0  0  0  0  0  0
  -50.8765    0.7329  -25.1234 C   0  0  0  0  0  0  0  0  0  0  0  0
  -51.3744   -0.4360  -25.5737 C   0  0  0  0  0  0  0  0  0  0  0  0
  -50.7063    1.8446  -26.0370 C   0  0  0  0  0  0  0  0  0  0  0  0
  -51.5999   -0.6175  -27.0006 C   0  0  0  0  0  0  0  0  0  0  0  0
  -50.9519    1.6944  -27.3487 C   0  0  0  0  0  0  0  0  0  0  0  0
  -50.3350    3.0423  -25.5419 F   0  0  0  0  0  0  0  0  0  0  0  0
  -51.3955    0.4044  -27.8527 C   0  0  0  0  0  0  0  0  0  0  0  0
  -51.2882    1.5290  -20.7216 C   0  0  0  0  0  0  0  0  0  0  0  0
  -51.9378    2.3007  -19.8292 C   0  0  0  0  0  0  0  0  0  0  0  0
  -50.1448    0.7330  -20.3023 C   0  0  0  0  0  0  0  0  0  0  0  0
  -51.5518    2.2639  -18.4275 C   0  0  0  0  0  0  0  0  0  0  0  0
  -49.7748    0.7201  -19.0089 C   0  0  0  0  0  0  0  0  0  0  0  0
  -50.5135    1.5045  -18.0222 C   0  0  0  0  0  0  0  0  0  0  0  0
  -50.0641    1.4193  -16.5964 C   0  0  0  0  0  0  0  0  0  0  0  0
  -50.2947    2.7325  -23.0850 H   0  0  0  0  0  0  0  0  0  0  0  0
  -51.5942   -1.1967  -24.9119 H   0  0  0  0  0  0  0  0  0  0  0  0
  -51.9171   -1.5316  -27.3595 H   0  0  0  0  0  0  0  0  0  0  0  0
  -50.8267    2.4893  -27.9949 H   0  0  0  0  0  0  0  0  0  0  0  0
  -51.5536    0.2723  -28.8639 H   0  0  0  0  0  0  0  0  0  0  0  0
  -52.7065    2.9157  -20.1388 H   0  0  0  0  0  0  0  0  0  0  0  0
  -49.6184    0.1791  -20.9960 H   0  0  0  0  0  0  0  0  0  0  0  0
  -52.0767    2.8235  -17.7373 H   0  0  0  0  0  0  0  0  0  0  0  0
  -48.9651    0.1532  -18.7122 H   0  0  0  0  0  0  0  0  0  0  0  0
  -50.6890    2.0391  -15.9878 H   0  0  0  0  0  0  0  0  0  0  0  0
  -49.0500    1.7524  -16.5215 H   0  0  0  0  0  0  0  0  0  0  0  0
  -50.1322    0.4055  -16.2610 H   0  0  0  0  0  0  0  0  0  0  0  0
  1  6  1  0  0  0  0
  1  2  1  0  0  0  0
  1  3  2  0  0  0  0
  2 20  1  0  0  0  0
  4  2  1  0  0  0  0
  4 13  1  0  0  0  0
  4  5  2  0  0  0  0
  6  7  2  0  0  0  0
  7  9  1  0  0  0  0
  7 21  1  0  0  0  0
  8  6  1  0  0  0  0
  8 11  1  0  0  0  0
  9 12  2  0  0  0  0
  9 22  1  0  0  0  0
 10  8  2  0  0  0  0
 10 23  1  0  0  0  0
 12 10  1  0  0  0  0
 12 24  1  0  0  0  0
 13 14  2  0  0  0  0
 14 16  1  0  0  0  0
 14 25  1  0  0  0  0
 15 13  1  0  0  0  0
 15 26  1  0  0  0  0
 16 18  2  0  0  0  0
 16 27  1  0  0  0  0
 17 15  2  0  0  0  0
 17 28  1  0  0  0  0
 18 17  1  0  0  0  0
 18 19  1  0  0  0  0
 19 29  1  0  0  0  0
 19 30  1  0  0  0  0
 19 31  1  0  0  0  0
M  END
>  <minimizedAffinity>
-8.05924

$$$$

 OpenBabel07052409263D

 31 32  0  0  0  0  0  0  0  0999 V2000
  -50.9145    0.2152  -23.0239 C   0  0  0  0  0  0  0  0  0  0  0  0
  -50.9193    1.3835  -22.3101 N   0  0  0  0  0  0  0  0  0  0  0  0
  -50.6525   -0.8880  -22.5597 O   0  0  0  0  0  0  0  0  0  0  0  0
  -51.9735    1.5161  -21.4538 C   0  0  0  0  0  0  0  0  0  0  0  0
  -53.1110    1.7882  -21.8194 O   0  0  0  0  0  0  0  0  0  0  0  0
  -51.1985    0.3946  -24.4730 C   0  0  0  0  0  0  0  0  0  0  0  0
  -50.8993    1.5750  -25.0511 C   0  0  0  0  0  0  0  0  0  0  0  0
  -51.6380   -0.7325  -25.2872 C   0  0  0  0  0  0  0  0  0  0  0  0
  -50.8333    1.6658  -26.5019 C   0  0  0  0  0  0  0  0  0  0  0  0
  -51.6201   -0.6291  -26.6292 C   0  0  0  0  0  0  0  0  0  0  0  0
  -51.1796    0.6048  -27.2482 C   0  0  0  0  0  0  0  0  0  0  0  0
  -51.1355    0.6647  -28.5927 F   0  0  0  0  0  0  0  0  0  0  0  0
  -51.5970    1.4086  -20.0234 C   0  0  0  0  0  0  0  0  0  0  0  0
  -51.8443    2.4651  -19.2253 C   0  0  0  0  0  0  0  0  0  0  0  0
  -50.9192    0.2371  -19.4931 C   0  0  0  0  0  0  0  0  0  0  0  0
  -51.2830    2.5006  -17.8839 C   0  0  0  0  0  0  0  0  0  0  0  0
  -50.4399    0.2539  -18.2362 C   0  0  0  0  0  0  0  0  0  0  0  0
  -50.6096    1.4378  -17.3968 C   0  0  0  0  0  0  0  0  0  0  0  0
  -50.0202    1.3969  -16.0209 C   0  0  0  0  0  0  0  0  0  0  0  0
  -50.2207    2.0704  -22.4065 H   0  0  0  0  0  0  0  0  0  0  0  0
  -50.7184    2.4079  -24.4692 H   0  0  0  0  0  0  0  0  0  0  0  0
  -51.9606   -1.6036  -24.8376 H   0  0  0  0  0  0  0  0  0  0  0  0
  -50.5224    2.5398  -26.9541 H   0  0  0  0  0  0  0  0  0  0  0  0
  -51.9187   -1.4249  -27.2145 H   0  0  0  0  0  0  0  0  0  0  0  0
  -52.4289    3.2453  -19.5638 H   0  0  0  0  0  0  0  0  0  0  0  0
  -50.8060   -0.6049  -20.0790 H   0  0  0  0  0  0  0  0  0  0  0  0
  -51.4006    3.3441  -17.3011 H   0  0  0  0  0  0  0  0  0  0  0  0
  -49.9497   -0.5739  -17.8628 H   0  0  0  0  0  0  0  0  0  0  0  0
  -50.2175    2.3220  -15.5207 H   0  0  0  0  0  0  0  0  0  0  0  0
  -48.9630    1.2472  -16.0901 H   0  0  0  0  0  0  0  0  0  0  0  0
  -50.4590    0.5922  -15.4687 H   0  0  0  0  0  0  0  0  0  0  0  0
  1  6  1  0  0  0  0
  1  2  1  0  0  0  0
  1  3  2  0  0  0  0
  2 20  1  0  0  0  0
  4  2  1  0  0  0  0
  4 13  1  0  0  0  0
  4  5  2  0  0  0  0
  6  7  2  0  0  0  0
  7  9  1  0  0  0  0
  7 21  1  0  0  0  0
  8  6  1  0  0  0  0
  8 22  1  0  0  0  0
  9 11  2  0  0  0  0
  9 23  1  0  0  0  0
 10  8  2  0  0  0  0
 10 24  1  0  0  0  0
 11 10  1  0  0  0  0
 11 12  1  0  0  0  0
 13 14  2  0  0  0  0
 14 16  1  0  0  0  0
 14 25  1  0  0  0  0
 15 13  1  0  0  0  0
 15 26  1  0  0  0  0
 16 18  2  0  0  0  0
 16 27  1  0  0  0  0
 17 15  2  0  0  0  0
 17 28  1  0  0  0  0
 18 17  1  0  0  0  0
 18 19  1  0  0  0  0
 19 29  1  0  0  0  0
 19 30  1  0  0  0  0
 19 31  1  0  0  0  0
M  END
>  <minimizedAffinity>
-8.18928

$$$$

 OpenBabel07052409263D

 31 32  0  0  0  0  0  0  0  0999 V2000
  -50.9359   -0.6906  -25.2975 C   0  0  0  0  0  0  0  0  0  0  0  0
  -49.8910   -1.1447  -24.5372 N   0  0  0  0  0  0  0  0  0  0  0  0
  -51.9602   -1.3200  -25.5251 O   0  0  0  0  0  0  0  0  0  0  0  0
  -50.1542   -1.4356  -23.2279 C   0  0  0  0  0  0  0  0  0  0  0  0
  -50.0305   -2.5678  -22.7737 O   0  0  0  0  0  0  0  0  0  0  0  0
  -50.4989   -0.2748  -22.3699 C   0  0  0  0  0  0  0  0  0  0  0  0
  -49.5788    0.1502  -21.4836 C   0  0  0  0  0  0  0  0  0  0  0  0
  -51.8302    0.3096  -22.3778 C   0  0  0  0  0  0  0  0  0  0  0  0
  -49.9796    1.0383  -20.4044 C   0  0  0  0  0  0  0  0  0  0  0  0
  -52.1840    1.1734  -21.4086 C   0  0  0  0  0  0  0  0  0  0  0  0
  -51.2331    1.5356  -20.3594 C   0  0  0  0  0  0  0  0  0  0  0  0
  -51.7121    2.4620  -19.2848 C   0  0  0  0  0  0  0  0  0  0  0  0
  -50.6677    0.6318  -25.9154 C   0  0  0  0  0  0  0  0  0  0  0  0
  -50.9981    0.8150  -27.2080 C   0  0  0  0  0  0  0  0  0  0  0  0
  -50.2368    1.7664  -25.1101 C   0  0  0  0  0  0  0  0  0  0  0  0
  -51.2255    2.1634  -27.7014 C   0  0  0  0  0  0  0  0  0  0  0  0
  -50.3675    3.0141  -25.5972 C   0  0  0  0  0  0  0  0  0  0  0  0
  -50.9208    3.2200  -26.9262 C   0  0  0  0  0  0  0  0  0  0  0  0
  -48.9897   -1.2567  -24.9172 H   0  0  0  0  0  0  0  0  0  0  0  0
  -48.5959   -0.1523  -21.5696 H   0  0  0  0  0  0  0  0  0  0  0  0
  -52.5004    0.0632  -23.1229 H   0  0  0  0  0  0  0  0  0  0  0  0
  -49.3013    1.2898  -19.6684 H   0  0  0  0  0  0  0  0  0  0  0  0
  -53.1316    1.5822  -21.4061 H   0  0  0  0  0  0  0  0  0  0  0  0
  -50.9195    2.6406  -18.5885 H   0  0  0  0  0  0  0  0  0  0  0  0
  -52.5415    2.0182  -18.7749 H   0  0  0  0  0  0  0  0  0  0  0  0
  -52.0175    3.3891  -19.7231 H   0  0  0  0  0  0  0  0  0  0  0  0
  -51.0890    0.0060  -27.8422 H   0  0  0  0  0  0  0  0  0  0  0  0
  -49.8339    1.6145  -24.1722 H   0  0  0  0  0  0  0  0  0  0  0  0
  -51.6196    2.3098  -28.6439 H   0  0  0  0  0  0  0  0  0  0  0  0
  -50.0754    3.8240  -25.0282 H   0  0  0  0  0  0  0  0  0  0  0  0
  -51.0800    4.1780  -27.2753 H   0  0  0  0  0  0  0  0  0  0  0  0
  1 13  1  0  0  0  0
  1  2  1  0  0  0  0
  1  3  2  0  0  0  0
  2 19  1  0  0  0  0
  4  2  1  0  0  0  0
  4  6  1  0  0  0  0
  4  5  2  0  0  0  0
  6  7  2  0  0  0  0
  7  9  1  0  0  0  0
  7 20  1  0  0  0  0
  8  6  1  0  0  0  0
  8 21  1  0  0  0  0
  9 11  2  0  0  0  0
  9 22  1  0  0  0  0
 10  8  2  0  0  0  0
 10 23  1  0  0  0  0
 11 10  1  0  0  0  0
 11 12  1  0  0  0  0
 12 24  1  0  0  0  0
 12 25  1  0  0  0  0
 12 26  1  0  0  0  0
 13 14  2  0  0  0  0
 14 16  1  0  0  0  0
 14 27  1  0  0  0  0
 15 13  1  0  0  0  0
 15 28  1  0  0  0  0
 16 18  2  0  0  0  0
 16 29  1  0  0  0  0
 17 15  2  0  0  0  0
 17 30  1  0  0  0  0
 18 17  1  0  0  0  0
 18 31  1  0  0  0  0
M  END
>  <minimizedAffinity>
-7.89769

$$$$

 OpenBabel07052409263D

 31 32  0  0  0  0  0  0  0  0999 V2000
  -50.4547    0.4380  -23.2192 C   0  0  0  0  0  0  0  0  0  0  0  0
  -50.6836    1.5067  -22.4042 N   0  0  0  0  0  0  0  0  0  0  0  0
  -50.1092   -0.6639  -22.8108 O   0  0  0  0  0  0  0  0  0  0  0  0
  -51.9165    1.5019  -21.8080 C   0  0  0  0  0  0  0  0  0  0  0  0
  -52.9778    1.6435  -22.4041 O   0  0  0  0  0  0  0  0  0  0  0  0
  -50.5947    0.7515  -24.6582 C   0  0  0  0  0  0  0  0  0  0  0  0
  -50.1203    1.9306  -25.1108 C   0  0  0  0  0  0  0  0  0  0  0  0
  -51.4580   -0.0544  -25.5017 C   0  0  0  0  0  0  0  0  0  0  0  0
  -50.5619    2.4313  -26.4057 C   0  0  0  0  0  0  0  0  0  0  0  0
  -51.8462    0.3916  -26.7074 C   0  0  0  0  0  0  0  0  0  0  0  0
  -51.8527   -1.2663  -25.0616 F   0  0  0  0  0  0  0  0  0  0  0  0
  -51.3868    1.6870  -27.1611 C   0  0  0  0  0  0  0  0  0  0  0  0
  -51.7998    2.1251  -28.3659 F   0  0  0  0  0  0  0  0  0  0  0  0
  -51.8696    1.3636  -20.3288 C   0  0  0  0  0  0  0  0  0  0  0  0
  -51.3788    0.2208  -19.8128 C   0  0  0  0  0  0  0  0  0  0  0  0
  -52.0289    2.5315  -19.4763 C   0  0  0  0  0  0  0  0  0  0  0  0
  -50.7278    0.2470  -18.5129 C   0  0  0  0  0  0  0  0  0  0  0  0
  -51.4963    2.5318  -18.2407 C   0  0  0  0  0  0  0  0  0  0  0  0
  -50.7786    1.3573  -17.7480 C   0  0  0  0  0  0  0  0  0  0  0  0
  -50.1446    1.4535  -16.3946 C   0  0  0  0  0  0  0  0  0  0  0  0
  -50.0206    2.2195  -22.2571 H   0  0  0  0  0  0  0  0  0  0  0  0
  -49.4500    2.4735  -24.5443 H   0  0  0  0  0  0  0  0  0  0  0  0
  -50.2425    3.3535  -26.7412 H   0  0  0  0  0  0  0  0  0  0  0  0
  -52.4641   -0.1818  -27.3028 H   0  0  0  0  0  0  0  0  0  0  0  0
  -51.4639   -0.6653  -20.3350 H   0  0  0  0  0  0  0  0  0  0  0  0
  -52.5478    3.3557  -19.8175 H   0  0  0  0  0  0  0  0  0  0  0  0
  -50.2245   -0.5877  -18.1737 H   0  0  0  0  0  0  0  0  0  0  0  0
  -51.5948    3.3641  -17.6386 H   0  0  0  0  0  0  0  0  0  0  0  0
  -49.6573    0.5296  -16.1625 H   0  0  0  0  0  0  0  0  0  0  0  0
  -50.8977    1.6535  -15.6613 H   0  0  0  0  0  0  0  0  0  0  0  0
  -49.4258    2.2461  -16.3930 H   0  0  0  0  0  0  0  0  0  0  0  0
  1  6  1  0  0  0  0
  1  2  1  0  0  0  0
  1  3  2  0  0  0  0
  2 21  1  0  0  0  0
  4  2  1  0  0  0  0
  4 14  1  0  0  0  0
  4  5  2  0  0  0  0
  6  7  2  0  0  0  0
  7  9  1  0  0  0  0
  7 22  1  0  0  0  0
  8  6  1  0  0  0  0
  8 11  1  0  0  0  0
  9 12  2  0  0  0  0
  9 23  1  0  0  0  0
 10  8  2  0  0  0  0
 10 24  1  0  0  0  0
 12 10  1  0  0  0  0
 12 13  1  0  0  0  0
 14 15  2  0  0  0  0
 15 17  1  0  0  0  0
 15 25  1  0  0  0  0
 16 14  1  0  0  0  0
 16 26  1  0  0  0  0
 17 19  2  0  0  0  0
 17 27  1  0  0  0  0
 18 16  2  0  0  0  0
 18 28  1  0  0  0  0
 19 18  1  0  0  0  0
 19 20  1  0  0  0  0
 20 29  1  0  0  0  0
 20 30  1  0  0  0  0
 20 31  1  0  0  0  0
M  END
>  <minimizedAffinity>
-8.30136

$$$$

 OpenBabel07052409263D

 33 34  0  0  0  0  0  0  0  0999 V2000
  -50.8633   -0.1908  -21.6483 N   0  0  0  0  0  0  0  0  0  0  0  0
  -50.0354   -0.1798  -22.7477 C   0  0  0  0  0  0  0  0  0  0  0  0
  -48.9227   -0.6906  -22.7849 O   0  0  0  0  0  0  0  0  0  0  0  0
  -50.6393    0.4735  -23.9365 C   0  0  0  0  0  0  0  0  0  0  0  0
  -50.3422    1.7656  -24.1712 C   0  0  0  0  0  0  0  0  0  0  0  0
  -51.3596   -0.2985  -24.9358 C   0  0  0  0  0  0  0  0  0  0  0  0
  -50.4651    2.2907  -25.5225 C   0  0  0  0  0  0  0  0  0  0  0  0
  -51.5443    0.2144  -26.1660 C   0  0  0  0  0  0  0  0  0  0  0  0
  -51.0447    1.5499  -26.4903 C   0  0  0  0  0  0  0  0  0  0  0  0
  -51.2252    2.0295  -27.8975 C   0  0  0  0  0  0  0  0  0  0  0  0
  -51.1977    2.0335  -18.2166 C   0  0  0  0  0  0  0  0  0  0  0  0
  -51.9910    2.3404  -19.2603 C   0  0  0  0  0  0  0  0  0  0  0  0
  -50.0354    1.1827  -18.4140 C   0  0  0  0  0  0  0  0  0  0  0  0
  -51.7680    1.7025  -20.5502 C   0  0  0  0  0  0  0  0  0  0  0  0
  -49.8423    0.5802  -19.6018 C   0  0  0  0  0  0  0  0  0  0  0  0
  -50.7967    0.7784  -20.6831 C   0  0  0  0  0  0  0  0  0  0  0  0
  -51.2354    2.7258  -17.0287 O   0  0  0  0  0  0  0  0  0  0  0  0
  -50.5921    1.9718  -16.0024 C   0  0  0  0  0  0  0  0  0  0  0  0
  -51.5222   -0.9161  -21.5530 H   0  0  0  0  0  0  0  0  0  0  0  0
  -50.0305    2.3772  -23.4006 H   0  0  0  0  0  0  0  0  0  0  0  0
  -51.7271   -1.2343  -24.7031 H   0  0  0  0  0  0  0  0  0  0  0  0
  -50.1076    3.2336  -25.7419 H   0  0  0  0  0  0  0  0  0  0  0  0
  -52.0405   -0.3369  -26.8835 H   0  0  0  0  0  0  0  0  0  0  0  0
  -50.8172    3.0139  -27.9939 H   0  0  0  0  0  0  0  0  0  0  0  0
  -52.2680    2.0507  -28.1361 H   0  0  0  0  0  0  0  0  0  0  0  0
  -50.7194    1.3665  -28.5679 H   0  0  0  0  0  0  0  0  0  0  0  0
  -52.7545    3.0254  -19.1465 H   0  0  0  0  0  0  0  0  0  0  0  0
  -49.3608    1.0413  -17.6459 H   0  0  0  0  0  0  0  0  0  0  0  0
  -52.3530    1.9579  -21.3611 H   0  0  0  0  0  0  0  0  0  0  0  0
  -49.0172   -0.0226  -19.7462 H   0  0  0  0  0  0  0  0  0  0  0  0
  -50.6268    2.5185  -15.0832 H   0  0  0  0  0  0  0  0  0  0  0  0
  -49.5723    1.7962  -16.2747 H   0  0  0  0  0  0  0  0  0  0  0  0
  -51.0948    1.0352  -15.8796 H   0  0  0  0  0  0  0  0  0  0  0  0
  1 16  1  0  0  0  0
  1 19  1  0  0  0  0
  2  1  1  0  0  0  0
  2  4  1  0  0  0  0
  2  3  2  0  0  0  0
  4  5  2  0  0  0  0
  5  7  1  0  0  0  0
  5 20  1  0  0  0  0
  6  4  1  0  0  0  0
  6 21  1  0  0  0  0
  7  9  2  0  0  0  0
  7 22  1  0  0  0  0
  8  6  2  0  0  0  0
  8 23  1  0  0  0  0
  9  8  1  0  0  0  0
  9 10  1  0  0  0  0
 10 24  1  0  0  0  0
 10 25  1  0  0  0  0
 10 26  1  0  0  0  0
 11 13  1  0  0  0  0
 12 11  2  0  0  0  0
 12 27  1  0  0  0  0
 13 15  2  0  0  0  0
 13 28  1  0  0  0  0
 14 12  1  0  0  0  0
 14 29  1  0  0  0  0
 15 16  1  0  0  0  0
 15 30  1  0  0  0  0
 16 14  2  0  0  0  0
 17 11  1  0  0  0  0
 17 18  1  0  0  0  0
 18 31  1  0  0  0  0
 18 32  1  0  0  0  0
 18 33  1  0  0  0  0
M  END
>  <minimizedAffinity>
-7.40576

$$$$

 OpenBabel07052409263D

 40 42  0  0  0  0  0  0  0  0999 V2000
  -50.8982    0.8038  -23.4491 C   0  0  0  0  0  0  0  0  0  0  0  0
  -49.8458    0.0249  -23.0944 C   0  0  0  0  0  0  0  0  0  0  0  0
  -51.7075    1.3897  -22.3752 C   0  0  0  0  0  0  0  0  0  0  0  0
  -49.4700   -0.1336  -21.6921 C   0  0  0  0  0  0  0  0  0  0  0  0
  -51.3139    1.3035  -21.0902 C   0  0  0  0  0  0  0  0  0  0  0  0
  -50.0792    0.6132  -20.7526 C   0  0  0  0  0  0  0  0  0  0  0  0
  -51.1490    1.0706  -24.8672 C   0  0  0  0  0  0  0  0  0  0  0  0
  -51.8441    0.1547  -25.5839 C   0  0  0  0  0  0  0  0  0  0  0  0
  -50.5898    2.2195  -25.5968 C   0  0  0  0  0  0  0  0  0  0  0  0
  -51.9274    0.2313  -27.0321 C   0  0  0  0  0  0  0  0  0  0  0  0
  -50.6994    2.3101  -26.9363 C   0  0  0  0  0  0  0  0  0  0  0  0
  -49.9722    3.1805  -24.8271 O   0  0  0  0  0  0  0  0  0  0  0  0
  -51.3767    1.2660  -27.6828 C   0  0  0  0  0  0  0  0  0  0  0  0
  -49.4072    1.0343  -19.6296 N   0  0  0  0  0  0  0  0  0  0  0  0
  -49.4688    0.2852  -18.4735 C   0  0  0  0  0  0  0  0  0  0  0  0
  -49.0200   -0.8480  -18.3498 O   0  0  0  0  0  0  0  0  0  0  0  0
  -50.0566    1.0279  -17.3354 C   0  0  0  0  0  0  0  0  0  0  0  0
  -49.5563    0.7875  -16.1099 C   0  0  0  0  0  0  0  0  0  0  0  0
  -50.9779    2.1364  -17.5378 C   0  0  0  0  0  0  0  0  0  0  0  0
  -49.7024    1.7929  -15.0679 C   0  0  0  0  0  0  0  0  0  0  0  0
  -51.1679    3.0367  -16.5521 C   0  0  0  0  0  0  0  0  0  0  0  0
  -50.4740    2.8825  -15.2731 C   0  0  0  0  0  0  0  0  0  0  0  0
  -50.6879    3.9482  -14.2411 C   0  0  0  0  0  0  0  0  0  0  0  0
  -49.3036   -0.4621  -23.8251 H   0  0  0  0  0  0  0  0  0  0  0  0
  -52.5890    1.8737  -22.6071 H   0  0  0  0  0  0  0  0  0  0  0  0
  -48.7420   -0.8139  -21.4233 H   0  0  0  0  0  0  0  0  0  0  0  0
  -51.8885    1.7273  -20.3450 H   0  0  0  0  0  0  0  0  0  0  0  0
  -52.3246   -0.6138  -25.0904 H   0  0  0  0  0  0  0  0  0  0  0  0
  -52.4110   -0.5116  -27.5606 H   0  0  0  0  0  0  0  0  0  0  0  0
  -50.3013    3.1229  -27.4322 H   0  0  0  0  0  0  0  0  0  0  0  0
  -49.9200    3.0740  -23.8976 H   0  0  0  0  0  0  0  0  0  0  0  0
  -51.4343    1.3199  -28.7118 H   0  0  0  0  0  0  0  0  0  0  0  0
  -48.8838    1.8679  -19.6507 H   0  0  0  0  0  0  0  0  0  0  0  0
  -49.0730   -0.1023  -15.9104 H   0  0  0  0  0  0  0  0  0  0  0  0
  -51.4837    2.2329  -18.4322 H   0  0  0  0  0  0  0  0  0  0  0  0
  -49.2137    1.6727  -14.1670 H   0  0  0  0  0  0  0  0  0  0  0  0
  -51.8038    3.8359  -16.7000 H   0  0  0  0  0  0  0  0  0  0  0  0
  -50.1258    3.7113  -13.3620 H   0  0  0  0  0  0  0  0  0  0  0  0
  -51.7279    4.0032  -13.9955 H   0  0  0  0  0  0  0  0  0  0  0  0
  -50.3627    4.8908  -14.6291 H   0  0  0  0  0  0  0  0  0  0  0  0
  1  7  1  0  0  0  0
  1  3  1  0  0  0  0
  2  1  2  0  0  0  0
  2 24  1  0  0  0  0
  3  5  2  0  0  0  0
  3 25  1  0  0  0  0
  4  2  1  0  0  0  0
  4 26  1  0  0  0  0
  5  6  1  0  0  0  0
  5 27  1  0  0  0  0
  6  4  2  0  0  0  0
  7  8  2  0  0  0  0
  8 10  1  0  0  0  0
  8 28  1  0  0  0  0
  9  7  1  0  0  0  0
  9 12  1  0  0  0  0
 10 13  2  0  0  0  0
 10 29  1  0  0  0  0
 11  9  2  0  0  0  0
 11 30  1  0  0  0  0
 12 31  1  0  0  0  0
 13 11  1  0  0  0  0
 13 32  1  0  0  0  0
 14  6  1  0  0  0  0
 14 33  1  0  0  0  0
 15 14  1  0  0  0  0
 15 17  1  0  0  0  0
 15 16  2  0  0  0  0
 17 18  2  0  0  0  0
 18 20  1  0  0  0  0
 18 34  1  0  0  0  0
 19 17  1  0  0  0  0
 19 35  1  0  0  0  0
 20 22  2  0  0  0  0
 20 36  1  0  0  0  0
 21 19  2  0  0  0  0
 21 37  1  0  0  0  0
 22 21  1  0  0  0  0
 22 23  1  0  0  0  0
 23 38  1  0  0  0  0
 23 39  1  0  0  0  0
 23 40  1  0  0  0  0
M  END
>  <minimizedAffinity>
-8.85126

$$$$

 OpenBabel07052409263D

 43 45  0  0  0  0  0  0  0  0999 V2000
  -49.7712    0.7644  -19.5452 C   0  0  0  0  0  0  0  0  0  0  0  0
  -50.7225    1.2191  -20.3935 C   0  0  0  0  0  0  0  0  0  0  0  0
  -48.6587   -0.0070  -20.1118 C   0  0  0  0  0  0  0  0  0  0  0  0
  -50.6850    0.8748  -21.8064 C   0  0  0  0  0  0  0  0  0  0  0  0
  -48.6737   -0.3914  -21.4008 C   0  0  0  0  0  0  0  0  0  0  0  0
  -49.8037   -0.0397  -22.2471 C   0  0  0  0  0  0  0  0  0  0  0  0
  -49.8846    1.0453  -18.1123 C   0  0  0  0  0  0  0  0  0  0  0  0
  -48.9390    0.5383  -17.2869 C   0  0  0  0  0  0  0  0  0  0  0  0
  -50.9294    1.8907  -17.5076 C   0  0  0  0  0  0  0  0  0  0  0  0
  -48.9247    0.8467  -15.8665 C   0  0  0  0  0  0  0  0  0  0  0  0
  -50.9234    2.1629  -16.1918 C   0  0  0  0  0  0  0  0  0  0  0  0
  -51.9213    2.4023  -18.3191 O   0  0  0  0  0  0  0  0  0  0  0  0
  -49.8776    1.6302  -15.3270 C   0  0  0  0  0  0  0  0  0  0  0  0
  -49.9276    1.9938  -13.8761 C   0  0  0  0  0  0  0  0  0  0  0  0
  -50.1412   -0.8960  -23.2690 N   0  0  0  0  0  0  0  0  0  0  0  0
  -49.5290   -0.7754  -24.4962 C   0  0  0  0  0  0  0  0  0  0  0  0
  -48.5550   -1.4388  -24.8299 O   0  0  0  0  0  0  0  0  0  0  0  0
  -50.1979    0.1846  -25.4084 C   0  0  0  0  0  0  0  0  0  0  0  0
  -50.9590   -0.3020  -26.4066 C   0  0  0  0  0  0  0  0  0  0  0  0
  -50.0281    1.6194  -25.2516 C   0  0  0  0  0  0  0  0  0  0  0  0
  -51.4833    0.6025  -27.4166 C   0  0  0  0  0  0  0  0  0  0  0  0
  -50.5495    2.4579  -26.1647 C   0  0  0  0  0  0  0  0  0  0  0  0
  -51.2940    1.9339  -27.3059 C   0  0  0  0  0  0  0  0  0  0  0  0
  -51.8203    2.9243  -28.2975 C   0  0  0  0  0  0  0  0  0  0  0  0
  -51.4831    1.8168  -20.0340 H   0  0  0  0  0  0  0  0  0  0  0  0
  -47.8554   -0.2575  -19.5143 H   0  0  0  0  0  0  0  0  0  0  0  0
  -51.3326    1.3309  -22.4680 H   0  0  0  0  0  0  0  0  0  0  0  0
  -47.8861   -0.9341  -21.7882 H   0  0  0  0  0  0  0  0  0  0  0  0
  -48.2112   -0.0818  -17.6752 H   0  0  0  0  0  0  0  0  0  0  0  0
  -48.1782    0.4620  -15.2667 H   0  0  0  0  0  0  0  0  0  0  0  0
  -51.6666    2.7551  -15.7893 H   0  0  0  0  0  0  0  0  0  0  0  0
  -51.9219    2.2101  -19.2362 H   0  0  0  0  0  0  0  0  0  0  0  0
  -49.1058    1.5369  -13.3654 H   0  0  0  0  0  0  0  0  0  0  0  0
  -50.8474    1.6475  -13.4531 H   0  0  0  0  0  0  0  0  0  0  0  0
  -49.8653    3.0569  -13.7725 H   0  0  0  0  0  0  0  0  0  0  0  0
  -50.8197   -1.5943  -23.1231 H   0  0  0  0  0  0  0  0  0  0  0  0
  -51.1690   -1.3113  -26.4545 H   0  0  0  0  0  0  0  0  0  0  0  0
  -49.5090    1.9937  -24.4420 H   0  0  0  0  0  0  0  0  0  0  0  0
  -52.0036    0.2239  -28.2234 H   0  0  0  0  0  0  0  0  0  0  0  0
  -50.4227    3.4765  -26.0581 H   0  0  0  0  0  0  0  0  0  0  0  0
  -52.3414    2.4072  -29.0759 H   0  0  0  0  0  0  0  0  0  0  0  0
  -51.0052    3.4749  -28.7187 H   0  0  0  0  0  0  0  0  0  0  0  0
  -52.4904    3.5988  -27.8067 H   0  0  0  0  0  0  0  0  0  0  0  0
  1  7  1  0  0  0  0
  1  3  1  0  0  0  0
  2  1  2  0  0  0  0
  2 25  1  0  0  0  0
  3  5  2  0  0  0  0
  3 26  1  0  0  0  0
  4  2  1  0  0  0  0
  4 27  1  0  0  0  0
  5  6  1  0  0  0  0
  5 28  1  0  0  0  0
  6  4  2  0  0  0  0
  7  8  2  0  0  0  0
  8 10  1  0  0  0  0
  8 29  1  0  0  0  0
  9  7  1  0  0  0  0
  9 12  1  0  0  0  0
 10 13  2  0  0  0  0
 10 30  1  0  0  0  0
 11  9  2  0  0  0  0
 11 31  1  0  0  0  0
 12 32  1  0  0  0  0
 13 11  1  0  0  0  0
 13 14  1  0  0  0  0
 14 33  1  0  0  0  0
 14 34  1  0  0  0  0
 14 35  1  0  0  0  0
 15  6  1  0  0  0  0
 15 36  1  0  0  0  0
 16 15  1  0  0  0  0
 16 18  1  0  0  0  0
 16 17  2  0  0  0  0
 18 19  2  0  0  0  0
 19 21  1  0  0  0  0
 19 37  1  0  0  0  0
 20 18  1  0  0  0  0
 20 38  1  0  0  0  0
 21 23  2  0  0  0  0
 21 39  1  0  0  0  0
 22 20  2  0  0  0  0
 22 40  1  0  0  0  0
 23 22  1  0  0  0  0
 23 24  1  0  0  0  0
 24 41  1  0  0  0  0
 24 42  1  0  0  0  0
 24 43  1  0  0  0  0
M  END
>  <minimizedAffinity>
-9.79472

$$$$

 OpenBabel07052409263D

 39 41  0  0  0  0  0  0  0  0999 V2000
  -49.8300    0.6851  -19.5446 C   0  0  0  0  0  0  0  0  0  0  0  0
  -50.9363    0.8118  -20.3122 C   0  0  0  0  0  0  0  0  0  0  0  0
  -48.6380    0.0826  -20.1512 C   0  0  0  0  0  0  0  0  0  0  0  0
  -50.9541    0.3354  -21.6860 C   0  0  0  0  0  0  0  0  0  0  0  0
  -48.6652   -0.3916  -21.4098 C   0  0  0  0  0  0  0  0  0  0  0  0
  -49.8906   -0.3167  -22.1877 C   0  0  0  0  0  0  0  0  0  0  0  0
  -49.8711    1.1093  -18.1457 C   0  0  0  0  0  0  0  0  0  0  0  0
  -48.9562    0.6243  -17.2754 C   0  0  0  0  0  0  0  0  0  0  0  0
  -50.9095    2.0041  -17.6228 C   0  0  0  0  0  0  0  0  0  0  0  0
  -49.0411    0.9205  -15.8551 C   0  0  0  0  0  0  0  0  0  0  0  0
  -50.9778    2.2939  -16.3115 C   0  0  0  0  0  0  0  0  0  0  0  0
  -50.0131    1.7236  -15.3915 C   0  0  0  0  0  0  0  0  0  0  0  0
  -50.0203   -1.1287  -23.2900 N   0  0  0  0  0  0  0  0  0  0  0  0
  -49.3950   -0.7945  -24.4705 C   0  0  0  0  0  0  0  0  0  0  0  0
  -48.3152   -1.2593  -24.8150 O   0  0  0  0  0  0  0  0  0  0  0  0
  -50.1741    0.1364  -25.3238 C   0  0  0  0  0  0  0  0  0  0  0  0
  -50.0136    1.4614  -25.1465 C   0  0  0  0  0  0  0  0  0  0  0  0
  -51.0202   -0.3579  -26.3982 C   0  0  0  0  0  0  0  0  0  0  0  0
  -50.5050    2.3842  -26.1580 C   0  0  0  0  0  0  0  0  0  0  0  0
  -51.5231    0.5025  -27.3020 C   0  0  0  0  0  0  0  0  0  0  0  0
  -51.2349    1.9318  -27.1987 C   0  0  0  0  0  0  0  0  0  0  0  0
  -51.7837    2.8237  -28.2689 C   0  0  0  0  0  0  0  0  0  0  0  0
  -51.7810    1.2535  -19.9168 H   0  0  0  0  0  0  0  0  0  0  0  0
  -47.7651    0.0216  -19.6040 H   0  0  0  0  0  0  0  0  0  0  0  0
  -51.7844    0.4981  -22.2769 H   0  0  0  0  0  0  0  0  0  0  0  0
  -47.8163   -0.8084  -21.8228 H   0  0  0  0  0  0  0  0  0  0  0  0
  -48.1853    0.0343  -17.6257 H   0  0  0  0  0  0  0  0  0  0  0  0
  -51.5979    2.4174  -18.2711 H   0  0  0  0  0  0  0  0  0  0  0  0
  -48.3538    0.5133  -15.2018 H   0  0  0  0  0  0  0  0  0  0  0  0
  -51.7170    2.9224  -15.9599 H   0  0  0  0  0  0  0  0  0  0  0  0
  -50.0730    1.9341  -14.3830 H   0  0  0  0  0  0  0  0  0  0  0  0
  -50.5607   -1.9498  -23.2351 H   0  0  0  0  0  0  0  0  0  0  0  0
  -49.5455    1.8196  -24.2994 H   0  0  0  0  0  0  0  0  0  0  0  0
  -51.2342   -1.3651  -26.4672 H   0  0  0  0  0  0  0  0  0  0  0  0
  -50.2940    3.3913  -26.0791 H   0  0  0  0  0  0  0  0  0  0  0  0
  -52.1148    0.1519  -28.0714 H   0  0  0  0  0  0  0  0  0  0  0  0
  -51.4991    3.8359  -28.0703 H   0  0  0  0  0  0  0  0  0  0  0  0
  -52.8510    2.7494  -28.2825 H   0  0  0  0  0  0  0  0  0  0  0  0
  -51.3932    2.5231  -29.2187 H   0  0  0  0  0  0  0  0  0  0  0  0
  1  7  1  0  0  0  0
  1  3  1  0  0  0  0
  2  1  2  0  0  0  0
  2 23  1  0  0  0  0
  3  5  2  0  0  0  0
  3 24  1  0  0  0  0
  4  2  1  0  0  0  0
  4 25  1  0  0  0  0
  5  6  1  0  0  0  0
  5 26  1  0  0  0  0
  6  4  2  0  0  0  0
  7  8  2  0  0  0  0
  8 10  1  0  0  0  0
  8 27  1  0  0  0  0
  9  7  1  0  0  0  0
  9 28  1  0  0  0  0
 10 12  2  0  0  0  0
 10 29  1  0  0  0  0
 11  9  2  0  0  0  0
 11 30  1  0  0  0  0
 12 11  1  0  0  0  0
 12 31  1  0  0  0  0
 13  6  1  0  0  0  0
 13 32  1  0  0  0  0
 14 13  1  0  0  0  0
 14 16  1  0  0  0  0
 14 15  2  0  0  0  0
 16 17  2  0  0  0  0
 17 19  1  0  0  0  0
 17 33  1  0  0  0  0
 18 16  1  0  0  0  0
 18 34  1  0  0  0  0
 19 21  2  0  0  0  0
 19 35  1  0  0  0  0
 20 18  2  0  0  0  0
 20 36  1  0  0  0  0
 21 20  1  0  0  0  0
 21 22  1  0  0  0  0
 22 37  1  0  0  0  0
 22 38  1  0  0  0  0
 22 39  1  0  0  0  0
M  END
>  <minimizedAffinity>
-9.11330

$$$$

 OpenBabel07052409263D

 38 39  0  0  0  0  0  0  0  0999 V2000
  -51.2879    0.4220  -21.3328 N   0  0  0  0  0  0  0  0  0  0  0  0
  -51.9918    1.1524  -22.2676 C   0  0  0  0  0  0  0  0  0  0  0  0
  -52.9105    1.9251  -22.0201 O   0  0  0  0  0  0  0  0  0  0  0  0
  -51.5715    0.8651  -23.6629 C   0  0  0  0  0  0  0  0  0  0  0  0
  -52.4558    0.2759  -24.4901 C   0  0  0  0  0  0  0  0  0  0  0  0
  -50.3556    1.4520  -24.2051 C   0  0  0  0  0  0  0  0  0  0  0  0
  -52.3697    0.5332  -25.9200 C   0  0  0  0  0  0  0  0  0  0  0  0
  -50.2294    1.6115  -25.5349 C   0  0  0  0  0  0  0  0  0  0  0  0
  -51.2992    1.1772  -26.4329 C   0  0  0  0  0  0  0  0  0  0  0  0
  -51.1353    1.4677  -27.8934 C   0  0  0  0  0  0  0  0  0  0  0  0
  -49.7133    1.0726  -17.6517 C   0  0  0  0  0  0  0  0  0  0  0  0
  -48.8608    0.7905  -18.6615 C   0  0  0  0  0  0  0  0  0  0  0  0
  -51.0147    1.6528  -17.9913 C   0  0  0  0  0  0  0  0  0  0  0  0
  -49.3319    0.7743  -20.0402 C   0  0  0  0  0  0  0  0  0  0  0  0
  -51.4465    1.6386  -19.2656 C   0  0  0  0  0  0  0  0  0  0  0  0
  -50.6237    1.0428  -20.3059 C   0  0  0  0  0  0  0  0  0  0  0  0
  -49.4014    0.7162  -16.2113 C   0  0  0  0  0  0  0  0  0  0  0  0
  -50.1366    1.6263  -15.2233 C   0  0  0  0  0  0  0  0  0  0  0  0
  -47.8966    0.7068  -15.9279 C   0  0  0  0  0  0  0  0  0  0  0  0
  -51.2619   -0.5596  -21.4038 H   0  0  0  0  0  0  0  0  0  0  0  0
  -53.1853   -0.3502  -24.1149 H   0  0  0  0  0  0  0  0  0  0  0  0
  -49.5941    1.7444  -23.5730 H   0  0  0  0  0  0  0  0  0  0  0  0
  -53.1300    0.2222  -26.5447 H   0  0  0  0  0  0  0  0  0  0  0  0
  -49.3752    2.0416  -25.9226 H   0  0  0  0  0  0  0  0  0  0  0  0
  -51.9850    1.0977  -28.4282 H   0  0  0  0  0  0  0  0  0  0  0  0
  -50.2497    0.9883  -28.2552 H   0  0  0  0  0  0  0  0  0  0  0  0
  -51.0541    2.5245  -28.0399 H   0  0  0  0  0  0  0  0  0  0  0  0
  -47.8707    0.5854  -18.4551 H   0  0  0  0  0  0  0  0  0  0  0  0
  -51.6007    2.0727  -17.2528 H   0  0  0  0  0  0  0  0  0  0  0  0
  -48.6784    0.5580  -20.8091 H   0  0  0  0  0  0  0  0  0  0  0  0
  -52.3619    2.0507  -19.5047 H   0  0  0  0  0  0  0  0  0  0  0  0
  -49.7611   -0.2811  -16.0663 H   0  0  0  0  0  0  0  0  0  0  0  0
  -49.7966    2.6335  -15.3453 H   0  0  0  0  0  0  0  0  0  0  0  0
  -49.9379    1.3014  -14.2234 H   0  0  0  0  0  0  0  0  0  0  0  0
  -51.1890    1.5799  -15.4109 H   0  0  0  0  0  0  0  0  0  0  0  0
  -47.5019    1.6920  -16.0638 H   0  0  0  0  0  0  0  0  0  0  0  0
  -47.4110    0.0320  -16.6015 H   0  0  0  0  0  0  0  0  0  0  0  0
  -47.7254    0.3898  -14.9204 H   0  0  0  0  0  0  0  0  0  0  0  0
  1 16  1  0  0  0  0
  1 20  1  0  0  0  0
  2  1  1  0  0  0  0
  2  4  1  0  0  0  0
  2  3  2  0  0  0  0
  4  5  2  0  0  0  0
  5  7  1  0  0  0  0
  5 21  1  0  0  0  0
  6  4  1  0  0  0  0
  6 22  1  0  0  0  0
  7  9  2  0  0  0  0
  7 23  1  0  0  0  0
  8  6  2  0  0  0  0
  8 24  1  0  0  0  0
  9  8  1  0  0  0  0
  9 10  1  0  0  0  0
 10 25  1  0  0  0  0
 10 26  1  0  0  0  0
 10 27  1  0  0  0  0
 11 13  1  0  0  0  0
 12 11  2  0  0  0  0
 12 28  1  0  0  0  0
 13 15  2  0  0  0  0
 13 29  1  0  0  0  0
 14 12  1  0  0  0  0
 14 30  1  0  0  0  0
 15 16  1  0  0  0  0
 15 31  1  0  0  0  0
 16 14  2  0  0  0  0
 17 11  1  0  0  0  0
 17 18  1  0  0  0  0
 17 19  1  0  0  0  0
 17 32  1  0  0  0  0
 18 33  1  0  0  0  0
 18 34  1  0  0  0  0
 18 35  1  0  0  0  0
 19 36  1  0  0  0  0
 19 37  1  0  0  0  0
 19 38  1  0  0  0  0
M  END
>  <minimizedAffinity>
-8.13407

$$$$

 OpenBabel07052409263D

 31 32  0  0  0  0  0  0  0  0999 V2000
  -52.3323    0.6744  -19.0043 N   0  0  0  0  0  0  0  0  0  0  0  0
  -52.2581    1.5848  -20.0394 C   0  0  0  0  0  0  0  0  0  0  0  0
  -52.5138    2.7749  -19.9113 O   0  0  0  0  0  0  0  0  0  0  0  0
  -51.2077    0.4033  -18.2464 C   0  0  0  0  0  0  0  0  0  0  0  0
  -50.4121   -0.6534  -18.5076 C   0  0  0  0  0  0  0  0  0  0  0  0
  -50.7361    1.4427  -17.3335 C   0  0  0  0  0  0  0  0  0  0  0  0
  -49.0456   -0.7000  -17.9901 C   0  0  0  0  0  0  0  0  0  0  0  0
  -49.4957    1.3886  -16.8243 C   0  0  0  0  0  0  0  0  0  0  0  0
  -51.5994    2.4668  -17.0200 O   0  0  0  0  0  0  0  0  0  0  0  0
  -47.8067   -2.2738  -18.4874 I   0  0  0  0  0  0  0  0  0  0  0  0
  -48.6152    0.2871  -17.1774 C   0  0  0  0  0  0  0  0  0  0  0  0
  -51.9142    0.9769  -21.3496 C   0  0  0  0  0  0  0  0  0  0  0  0
  -52.5972    1.4184  -22.4252 C   0  0  0  0  0  0  0  0  0  0  0  0
  -50.6411    0.2904  -21.5390 C   0  0  0  0  0  0  0  0  0  0  0  0
  -51.9018    1.5573  -23.6969 C   0  0  0  0  0  0  0  0  0  0  0  0
  -50.0060    0.3987  -22.7212 C   0  0  0  0  0  0  0  0  0  0  0  0
  -50.6103    1.1866  -23.7840 C   0  0  0  0  0  0  0  0  0  0  0  0
  -49.8382    1.3913  -24.9004 O   0  0  0  0  0  0  0  0  0  0  0  0
  -50.5997    1.1416  -26.0823 C   0  0  0  0  0  0  0  0  0  0  0  0
  -53.1828    0.2197  -18.8063 H   0  0  0  0  0  0  0  0  0  0  0  0
  -50.7706   -1.4356  -19.0774 H   0  0  0  0  0  0  0  0  0  0  0  0
  -49.1674    2.1277  -16.1832 H   0  0  0  0  0  0  0  0  0  0  0  0
  -52.4608    2.4827  -17.3883 H   0  0  0  0  0  0  0  0  0  0  0  0
  -47.6537    0.2600  -16.8036 H   0  0  0  0  0  0  0  0  0  0  0  0
  -53.5989    1.6546  -22.3481 H   0  0  0  0  0  0  0  0  0  0  0  0
  -50.2322   -0.2715  -20.7760 H   0  0  0  0  0  0  0  0  0  0  0  0
  -52.3931    1.9355  -24.5219 H   0  0  0  0  0  0  0  0  0  0  0  0
  -49.1001   -0.0723  -22.8717 H   0  0  0  0  0  0  0  0  0  0  0  0
  -49.9858    1.3049  -26.9433 H   0  0  0  0  0  0  0  0  0  0  0  0
  -51.4394    1.8041  -26.1122 H   0  0  0  0  0  0  0  0  0  0  0  0
  -50.9445    0.1287  -26.0771 H   0  0  0  0  0  0  0  0  0  0  0  0
  1  4  1  0  0  0  0
  1 20  1  0  0  0  0
  2  1  1  0  0  0  0
  2 12  1  0  0  0  0
  2  3  2  0  0  0  0
  4  5  2  0  0  0  0
  5  7  1  0  0  0  0
  5 21  1  0  0  0  0
  6  4  1  0  0  0  0
  6  9  1  0  0  0  0
  7 10  1  0  0  0  0
  7 11  2  0  0  0  0
  8  6  2  0  0  0  0
  8 22  1  0  0  0  0
  9 23  1  0  0  0  0
 11  8  1  0  0  0  0
 11 24  1  0  0  0  0
 12 13  2  0  0  0  0
 13 15  1  0  0  0  0
 13 25  1  0  0  0  0
 14 12  1  0  0  0  0
 14 26  1  0  0  0  0
 15 17  2  0  0  0  0
 15 27  1  0  0  0  0
 16 14  2  0  0  0  0
 16 28  1  0  0  0  0
 17 16  1  0  0  0  0
 18 17  1  0  0  0  0
 18 19  1  0  0  0  0
 19 29  1  0  0  0  0
 19 30  1  0  0  0  0
 19 31  1  0  0  0  0
M  END
>  <minimizedAffinity>
-7.48104

$$$$

 OpenBabel07052409263D

 30 31  0  0  0  0  0  0  0  0999 V2000
  -51.9043    0.2589  -24.1885 N   0  0  0  0  0  0  0  0  0  0  0  0
  -51.2269   -0.2923  -23.1204 C   0  0  0  0  0  0  0  0  0  0  0  0
  -50.8072   -1.4426  -23.0863 O   0  0  0  0  0  0  0  0  0  0  0  0
  -51.2386    0.9783  -25.1586 C   0  0  0  0  0  0  0  0  0  0  0  0
  -50.7222    2.1918  -24.8815 C   0  0  0  0  0  0  0  0  0  0  0  0
  -51.2837    0.5300  -26.5574 C   0  0  0  0  0  0  0  0  0  0  0  0
  -50.6236    3.1870  -25.9346 C   0  0  0  0  0  0  0  0  0  0  0  0
  -51.0891    1.4329  -27.5402 C   0  0  0  0  0  0  0  0  0  0  0  0
  -51.5567   -1.2802  -26.9357 Br  0  0  0  0  0  0  0  0  0  0  0  0
  -50.8065    2.8221  -27.2158 C   0  0  0  0  0  0  0  0  0  0  0  0
  -51.0816    0.6268  -21.9618 C   0  0  0  0  0  0  0  0  0  0  0  0
  -49.9608    0.5399  -21.2194 C   0  0  0  0  0  0  0  0  0  0  0  0
  -52.2001    1.4379  -21.5023 C   0  0  0  0  0  0  0  0  0  0  0  0
  -49.9847    1.0042  -19.8408 C   0  0  0  0  0  0  0  0  0  0  0  0
  -52.1845    1.9456  -20.2560 C   0  0  0  0  0  0  0  0  0  0  0  0
  -51.0406    1.7071  -19.3878 C   0  0  0  0  0  0  0  0  0  0  0  0
  -51.2636    1.9152  -18.0463 O   0  0  0  0  0  0  0  0  0  0  0  0
  -50.1405    1.4699  -17.2880 C   0  0  0  0  0  0  0  0  0  0  0  0
  -52.8786    0.1367  -24.2593 H   0  0  0  0  0  0  0  0  0  0  0  0
  -50.3987    2.4126  -23.9267 H   0  0  0  0  0  0  0  0  0  0  0  0
  -50.4141    4.1700  -25.7006 H   0  0  0  0  0  0  0  0  0  0  0  0
  -51.1410    1.1365  -28.5274 H   0  0  0  0  0  0  0  0  0  0  0  0
  -50.7464    3.5266  -27.9675 H   0  0  0  0  0  0  0  0  0  0  0  0
  -49.0956    0.1487  -21.6237 H   0  0  0  0  0  0  0  0  0  0  0  0
  -52.9996    1.6223  -22.1282 H   0  0  0  0  0  0  0  0  0  0  0  0
  -49.1941    0.7954  -19.2112 H   0  0  0  0  0  0  0  0  0  0  0  0
  -52.9831    2.5038  -19.9159 H   0  0  0  0  0  0  0  0  0  0  0  0
  -50.3243    1.6362  -16.2471 H   0  0  0  0  0  0  0  0  0  0  0  0
  -49.2694    2.0141  -17.5877 H   0  0  0  0  0  0  0  0  0  0  0  0
  -49.9853    0.4253  -17.4603 H   0  0  0  0  0  0  0  0  0  0  0  0
  1  4  1  0  0  0  0
  1 19  1  0  0  0  0
  2  1  1  0  0  0  0
  2 11  1  0  0  0  0
  2  3  2  0  0  0  0
  4  5  2  0  0  0  0
  5  7  1  0  0  0  0
  5 20  1  0  0  0  0
  6  4  1  0  0  0  0
  6  9  1  0  0  0  0
  7 10  2  0  0  0  0
  7 21  1  0  0  0  0
  8  6  2  0  0  0  0
  8 22  1  0  0  0  0
 10  8  1  0  0  0  0
 10 23  1  0  0  0  0
 11 12  2  0  0  0  0
 12 14  1  0  0  0  0
 12 24  1  0  0  0  0
 13 11  1  0  0  0  0
 13 25  1  0  0  0  0
 14 16  2  0  0  0  0
 14 26  1  0  0  0  0
 15 13  2  0  0  0  0
 15 27  1  0  0  0  0
 16 15  1  0  0  0  0
 17 16  1  0  0  0  0
 17 18  1  0  0  0  0
 18 28  1  0  0  0  0
 18 29  1  0  0  0  0
 18 30  1  0  0  0  0
M  END
>  <minimizedAffinity>
-7.32817

$$$$

 OpenBabel07052409263D

 33 34  0  0  0  0  0  0  0  0999 V2000
  -51.1299   -0.8093  -22.9932 N   0  0  0  0  0  0  0  0  0  0  0  0
  -50.1107   -0.6468  -22.0844 C   0  0  0  0  0  0  0  0  0  0  0  0
  -49.0397   -1.2354  -22.1653 O   0  0  0  0  0  0  0  0  0  0  0  0
  -51.3346    0.1254  -23.9820 C   0  0  0  0  0  0  0  0  0  0  0  0
  -52.4222    0.0532  -24.7695 C   0  0  0  0  0  0  0  0  0  0  0  0
  -50.2150    0.9614  -24.3885 C   0  0  0  0  0  0  0  0  0  0  0  0
  -52.3776    0.5865  -26.1215 C   0  0  0  0  0  0  0  0  0  0  0  0
  -50.2018    1.5216  -25.6122 C   0  0  0  0  0  0  0  0  0  0  0  0
  -51.3115    1.3012  -26.5360 C   0  0  0  0  0  0  0  0  0  0  0  0
  -51.1926    1.8830  -27.9085 C   0  0  0  0  0  0  0  0  0  0  0  0
  -50.4441    0.2615  -20.9584 C   0  0  0  0  0  0  0  0  0  0  0  0
  -51.6895    0.7742  -20.8896 C   0  0  0  0  0  0  0  0  0  0  0  0
  -49.4857    0.5083  -19.8888 C   0  0  0  0  0  0  0  0  0  0  0  0
  -52.0424    1.6532  -19.7851 C   0  0  0  0  0  0  0  0  0  0  0  0
  -49.8448    1.2575  -18.8303 C   0  0  0  0  0  0  0  0  0  0  0  0
  -51.1918    1.8000  -18.7521 C   0  0  0  0  0  0  0  0  0  0  0  0
  -51.4356    2.6477  -17.6973 O   0  0  0  0  0  0  0  0  0  0  0  0
  -50.8154    2.1510  -16.5137 C   0  0  0  0  0  0  0  0  0  0  0  0
  -51.7160   -1.5983  -22.9361 H   0  0  0  0  0  0  0  0  0  0  0  0
  -53.2886   -0.3807  -24.4143 H   0  0  0  0  0  0  0  0  0  0  0  0
  -49.4306    1.1248  -23.7381 H   0  0  0  0  0  0  0  0  0  0  0  0
  -53.1651    0.4174  -26.7667 H   0  0  0  0  0  0  0  0  0  0  0  0
  -49.4038    2.1097  -25.8992 H   0  0  0  0  0  0  0  0  0  0  0  0
  -52.0698    1.6461  -28.4735 H   0  0  0  0  0  0  0  0  0  0  0  0
  -50.3328    1.4735  -28.3962 H   0  0  0  0  0  0  0  0  0  0  0  0
  -51.0901    2.9457  -27.8378 H   0  0  0  0  0  0  0  0  0  0  0  0
  -52.3870    0.5448  -21.6148 H   0  0  0  0  0  0  0  0  0  0  0  0
  -48.5352    0.1100  -19.9429 H   0  0  0  0  0  0  0  0  0  0  0  0
  -52.9404    2.1616  -19.7936 H   0  0  0  0  0  0  0  0  0  0  0  0
  -49.1662    1.4466  -18.0761 H   0  0  0  0  0  0  0  0  0  0  0  0
  -51.0121    2.8185  -15.7009 H   0  0  0  0  0  0  0  0  0  0  0  0
  -49.7591    2.0785  -16.6680 H   0  0  0  0  0  0  0  0  0  0  0  0
  -51.2095    1.1832  -16.2838 H   0  0  0  0  0  0  0  0  0  0  0  0
  1  4  1  0  0  0  0
  1 19  1  0  0  0  0
  2  1  1  0  0  0  0
  2 11  1  0  0  0  0
  2  3  2  0  0  0  0
  4  5  2  0  0  0  0
  5  7  1  0  0  0  0
  5 20  1  0  0  0  0
  6  4  1  0  0  0  0
  6 21  1  0  0  0  0
  7  9  2  0  0  0  0
  7 22  1  0  0  0  0
  8  6  2  0  0  0  0
  8 23  1  0  0  0  0
  9  8  1  0  0  0  0
  9 10  1  0  0  0  0
 10 24  1  0  0  0  0
 10 25  1  0  0  0  0
 10 26  1  0  0  0  0
 11 12  2  0  0  0  0
 12 14  1  0  0  0  0
 12 27  1  0  0  0  0
 13 11  1  0  0  0  0
 13 28  1  0  0  0  0
 14 16  2  0  0  0  0
 14 29  1  0  0  0  0
 15 13  2  0  0  0  0
 15 30  1  0  0  0  0
 16 15  1  0  0  0  0
 17 16  1  0  0  0  0
 17 18  1  0  0  0  0
 18 31  1  0  0  0  0
 18 32  1  0  0  0  0
 18 33  1  0  0  0  0
M  END
>  <minimizedAffinity>
-7.39034

$$$$

 OpenBabel07052409263D

 30 31  0  0  0  0  0  0  0  0999 V2000
  -51.9069    0.0631  -24.1410 N   0  0  0  0  0  0  0  0  0  0  0  0
  -51.1219   -0.3765  -23.0945 C   0  0  0  0  0  0  0  0  0  0  0  0
  -50.6167   -1.4905  -23.0293 O   0  0  0  0  0  0  0  0  0  0  0  0
  -51.3498    0.7399  -25.2055 C   0  0  0  0  0  0  0  0  0  0  0  0
  -50.8764    1.9932  -25.0597 C   0  0  0  0  0  0  0  0  0  0  0  0
  -51.3841    0.1464  -26.5453 C   0  0  0  0  0  0  0  0  0  0  0  0
  -50.7151    2.8467  -26.2248 C   0  0  0  0  0  0  0  0  0  0  0  0
  -51.1553    0.9181  -27.6248 C   0  0  0  0  0  0  0  0  0  0  0  0
  -51.6753   -1.5461  -26.7302 Cl  0  0  0  0  0  0  0  0  0  0  0  0
  -50.8535    2.3308  -27.4588 C   0  0  0  0  0  0  0  0  0  0  0  0
  -50.9776    0.6131  -21.9952 C   0  0  0  0  0  0  0  0  0  0  0  0
  -52.0688    1.3208  -21.6407 C   0  0  0  0  0  0  0  0  0  0  0  0
  -49.8049    0.6063  -21.1300 C   0  0  0  0  0  0  0  0  0  0  0  0
  -52.1976    1.7845  -20.2668 C   0  0  0  0  0  0  0  0  0  0  0  0
  -49.9173    1.0549  -19.8658 C   0  0  0  0  0  0  0  0  0  0  0  0
  -51.2030    1.5437  -19.3915 C   0  0  0  0  0  0  0  0  0  0  0  0
  -51.2498    1.9394  -18.0767 O   0  0  0  0  0  0  0  0  0  0  0  0
  -50.1883    1.3309  -17.3425 C   0  0  0  0  0  0  0  0  0  0  0  0
  -52.8762   -0.1086  -24.1274 H   0  0  0  0  0  0  0  0  0  0  0  0
  -50.6288    2.3463  -24.1221 H   0  0  0  0  0  0  0  0  0  0  0  0
  -50.4946    3.8477  -26.1052 H   0  0  0  0  0  0  0  0  0  0  0  0
  -51.1942    0.5067  -28.5704 H   0  0  0  0  0  0  0  0  0  0  0  0
  -50.7456    2.9368  -28.2871 H   0  0  0  0  0  0  0  0  0  0  0  0
  -52.8034    1.5311  -22.3343 H   0  0  0  0  0  0  0  0  0  0  0  0
  -48.8984    0.2614  -21.4826 H   0  0  0  0  0  0  0  0  0  0  0  0
  -53.0437    2.2933  -19.9663 H   0  0  0  0  0  0  0  0  0  0  0  0
  -49.0981    1.0521  -19.2381 H   0  0  0  0  0  0  0  0  0  0  0  0
  -50.2347    1.6460  -16.3210 H   0  0  0  0  0  0  0  0  0  0  0  0
  -49.2494    1.6240  -17.7638 H   0  0  0  0  0  0  0  0  0  0  0  0
  -50.2847    0.2664  -17.3921 H   0  0  0  0  0  0  0  0  0  0  0  0
  1  4  1  0  0  0  0
  1 19  1  0  0  0  0
  2  1  1  0  0  0  0
  2 11  1  0  0  0  0
  2  3  2  0  0  0  0
  4  5  2  0  0  0  0
  5  7  1  0  0  0  0
  5 20  1  0  0  0  0
  6  4  1  0  0  0  0
  6  9  1  0  0  0  0
  7 10  2  0  0  0  0
  7 21  1  0  0  0  0
  8  6  2  0  0  0  0
  8 22  1  0  0  0  0
 10  8  1  0  0  0  0
 10 23  1  0  0  0  0
 11 12  2  0  0  0  0
 12 14  1  0  0  0  0
 12 24  1  0  0  0  0
 13 11  1  0  0  0  0
 13 25  1  0  0  0  0
 14 16  2  0  0  0  0
 14 26  1  0  0  0  0
 15 13  2  0  0  0  0
 15 27  1  0  0  0  0
 16 15  1  0  0  0  0
 17 16  1  0  0  0  0
 17 18  1  0  0  0  0
 18 28  1  0  0  0  0
 18 29  1  0  0  0  0
 18 30  1  0  0  0  0
M  END
>  <minimizedAffinity>
-7.15826

$$$$

 OpenBabel07052409263D

 30 31  0  0  0  0  0  0  0  0999 V2000
  -50.7868   -0.5093  -21.2879 N   0  0  0  0  0  0  0  0  0  0  0  0
  -49.9464   -0.2470  -22.3511 C   0  0  0  0  0  0  0  0  0  0  0  0
  -48.7473   -0.4965  -22.3659 O   0  0  0  0  0  0  0  0  0  0  0  0
  -50.8707    0.3656  -20.2258 C   0  0  0  0  0  0  0  0  0  0  0  0
  -50.0838    0.2100  -19.1424 C   0  0  0  0  0  0  0  0  0  0  0  0
  -51.8953    1.4156  -20.2213 C   0  0  0  0  0  0  0  0  0  0  0  0
  -50.1755    1.1383  -18.0269 C   0  0  0  0  0  0  0  0  0  0  0  0
  -51.9919    2.2602  -19.1767 C   0  0  0  0  0  0  0  0  0  0  0  0
  -52.9993    1.5503  -21.5431 Cl  0  0  0  0  0  0  0  0  0  0  0  0
  -51.0882    2.1250  -18.0481 C   0  0  0  0  0  0  0  0  0  0  0  0
  -51.2259    3.2415  -16.7457 Cl  0  0  0  0  0  0  0  0  0  0  0  0
  -50.6369    0.3469  -23.5238 C   0  0  0  0  0  0  0  0  0  0  0  0
  -50.1546    1.5000  -24.0267 C   0  0  0  0  0  0  0  0  0  0  0  0
  -51.6871   -0.3776  -24.2254 C   0  0  0  0  0  0  0  0  0  0  0  0
  -50.5025    1.8837  -25.3860 C   0  0  0  0  0  0  0  0  0  0  0  0
  -52.0751    0.0330  -25.4472 C   0  0  0  0  0  0  0  0  0  0  0  0
  -51.4671    1.2133  -26.0448 C   0  0  0  0  0  0  0  0  0  0  0  0
  -51.6971    1.3829  -27.3905 O   0  0  0  0  0  0  0  0  0  0  0  0
  -51.2436    2.6689  -27.8072 C   0  0  0  0  0  0  0  0  0  0  0  0
  -51.3317   -1.3293  -21.2881 H   0  0  0  0  0  0  0  0  0  0  0  0
  -49.4122   -0.5727  -19.1044 H   0  0  0  0  0  0  0  0  0  0  0  0
  -49.5403    1.0397  -17.2195 H   0  0  0  0  0  0  0  0  0  0  0  0
  -52.7080    3.0033  -19.1783 H   0  0  0  0  0  0  0  0  0  0  0  0
  -49.5450    2.1044  -23.4538 H   0  0  0  0  0  0  0  0  0  0  0  0
  -52.1311   -1.2006  -23.7888 H   0  0  0  0  0  0  0  0  0  0  0  0
  -50.0116    2.6673  -25.8442 H   0  0  0  0  0  0  0  0  0  0  0  0
  -52.8031   -0.4885  -25.9601 H   0  0  0  0  0  0  0  0  0  0  0  0
  -51.4273    2.7898  -28.8544 H   0  0  0  0  0  0  0  0  0  0  0  0
  -50.1943    2.7560  -27.6167 H   0  0  0  0  0  0  0  0  0  0  0  0
  -51.7689    3.4259  -27.2632 H   0  0  0  0  0  0  0  0  0  0  0  0
  1  4  1  0  0  0  0
  1 20  1  0  0  0  0
  2  1  1  0  0  0  0
  2 12  1  0  0  0  0
  2  3  2  0  0  0  0
  4  5  2  0  0  0  0
  5  7  1  0  0  0  0
  5 21  1  0  0  0  0
  6  4  1  0  0  0  0
  6  9  1  0  0  0  0
  7 10  2  0  0  0  0
  7 22  1  0  0  0  0
  8  6  2  0  0  0  0
  8 23  1  0  0  0  0
 10  8  1  0  0  0  0
 10 11  1  0  0  0  0
 12 13  2  0  0  0  0
 13 15  1  0  0  0  0
 13 24  1  0  0  0  0
 14 12  1  0  0  0  0
 14 25  1  0  0  0  0
 15 17  2  0  0  0  0
 15 26  1  0  0  0  0
 16 14  2  0  0  0  0
 16 27  1  0  0  0  0
 17 16  1  0  0  0  0
 18 17  1  0  0  0  0
 18 19  1  0  0  0  0
 19 28  1  0  0  0  0
 19 29  1  0  0  0  0
 19 30  1  0  0  0  0
M  END
>  <minimizedAffinity>
-7.32345

$$$$

 OpenBabel07052409263D

 30 31  0  0  0  0  0  0  0  0999 V2000
  -52.0525    0.7459  -19.9798 N   0  0  0  0  0  0  0  0  0  0  0  0
  -52.3567    1.4153  -21.1450 C   0  0  0  0  0  0  0  0  0  0  0  0
  -53.2331    2.2664  -21.2202 O   0  0  0  0  0  0  0  0  0  0  0  0
  -51.0249    1.1928  -19.1808 C   0  0  0  0  0  0  0  0  0  0  0  0
  -51.2559    1.8831  -18.0466 C   0  0  0  0  0  0  0  0  0  0  0  0
  -49.7215    0.5737  -19.3831 C   0  0  0  0  0  0  0  0  0  0  0  0
  -50.3525    1.7327  -16.9134 C   0  0  0  0  0  0  0  0  0  0  0  0
  -48.8459    0.4975  -18.3634 C   0  0  0  0  0  0  0  0  0  0  0  0
  -49.1982    1.0583  -17.0681 C   0  0  0  0  0  0  0  0  0  0  0  0
  -48.0927    0.8679  -15.7609 Cl  0  0  0  0  0  0  0  0  0  0  0  0
  -51.5765    0.9650  -22.3236 C   0  0  0  0  0  0  0  0  0  0  0  0
  -51.2177   -0.3311  -22.3952 C   0  0  0  0  0  0  0  0  0  0  0  0
  -51.3513    1.8461  -23.4616 C   0  0  0  0  0  0  0  0  0  0  0  0
  -50.8143   -0.8946  -23.6740 C   0  0  0  0  0  0  0  0  0  0  0  0
  -50.9669    1.3255  -24.6416 C   0  0  0  0  0  0  0  0  0  0  0  0
  -50.7882   -0.1112  -24.7692 C   0  0  0  0  0  0  0  0  0  0  0  0
  -50.3613   -0.5604  -25.9954 O   0  0  0  0  0  0  0  0  0  0  0  0
  -51.4033   -1.2904  -26.6413 C   0  0  0  0  0  0  0  0  0  0  0  0
  -52.5692   -0.0506  -19.7193 H   0  0  0  0  0  0  0  0  0  0  0  0
  -52.0689    2.5153  -17.9810 H   0  0  0  0  0  0  0  0  0  0  0  0
  -49.4694    0.1934  -20.3087 H   0  0  0  0  0  0  0  0  0  0  0  0
  -50.5964    2.1409  -15.9975 H   0  0  0  0  0  0  0  0  0  0  0  0
  -47.9292    0.0435  -18.4999 H   0  0  0  0  0  0  0  0  0  0  0  0
  -51.2289   -0.9206  -21.5482 H   0  0  0  0  0  0  0  0  0  0  0  0
  -51.4859    2.8646  -23.3634 H   0  0  0  0  0  0  0  0  0  0  0  0
  -50.5494   -1.8897  -23.7418 H   0  0  0  0  0  0  0  0  0  0  0  0
  -50.7999    1.9430  -25.4514 H   0  0  0  0  0  0  0  0  0  0  0  0
  -51.0596   -1.6349  -27.5943 H   0  0  0  0  0  0  0  0  0  0  0  0
  -52.2530   -0.6545  -26.7771 H   0  0  0  0  0  0  0  0  0  0  0  0
  -51.6786   -2.1293  -26.0369 H   0  0  0  0  0  0  0  0  0  0  0  0
  1  4  1  0  0  0  0
  1 19  1  0  0  0  0
  2  1  1  0  0  0  0
  2 11  1  0  0  0  0
  2  3  2  0  0  0  0
  4  5  2  0  0  0  0
  5  7  1  0  0  0  0
  5 20  1  0  0  0  0
  6  4  1  0  0  0  0
  6 21  1  0  0  0  0
  7  9  2  0  0  0  0
  7 22  1  0  0  0  0
  8  6  2  0  0  0  0
  8 23  1  0  0  0  0
  9  8  1  0  0  0  0
  9 10  1  0  0  0  0
 11 12  2  0  0  0  0
 12 14  1  0  0  0  0
 12 24  1  0  0  0  0
 13 11  1  0  0  0  0
 13 25  1  0  0  0  0
 14 16  2  0  0  0  0
 14 26  1  0  0  0  0
 15 13  2  0  0  0  0
 15 27  1  0  0  0  0
 16 15  1  0  0  0  0
 17 16  1  0  0  0  0
 17 18  1  0  0  0  0
 18 28  1  0  0  0  0
 18 29  1  0  0  0  0
 18 30  1  0  0  0  0
M  END
>  <minimizedAffinity>
-7.22879

$$$$

 OpenBabel07052409263D

 31 32  0  0  0  0  0  0  0  0999 V2000
  -46.2288   -3.4270  -23.1352 N   0  0  0  0  0  0  0  0  0  0  0  0
  -44.8726   -3.2124  -23.2792 C   0  0  0  0  0  0  0  0  0  0  0  0
  -44.1075   -3.0385  -22.3397 O   0  0  0  0  0  0  0  0  0  0  0  0
  -47.0887   -2.3489  -23.0291 C   0  0  0  0  0  0  0  0  0  0  0  0
  -47.1758   -1.6228  -21.8969 C   0  0  0  0  0  0  0  0  0  0  0  0
  -48.0918   -2.1700  -24.0808 C   0  0  0  0  0  0  0  0  0  0  0  0
  -48.3000   -0.7234  -21.6856 C   0  0  0  0  0  0  0  0  0  0  0  0
  -49.1247   -1.3205  -23.8984 C   0  0  0  0  0  0  0  0  0  0  0  0
  -47.9221   -2.9034  -25.2370 O   0  0  0  0  0  0  0  0  0  0  0  0
  -48.3827    0.2085  -20.0735 Br  0  0  0  0  0  0  0  0  0  0  0  0
  -49.2306   -0.5792  -22.6473 C   0  0  0  0  0  0  0  0  0  0  0  0
  -50.4552   -1.0234  -25.1766 Br  0  0  0  0  0  0  0  0  0  0  0  0
  -44.4078   -3.2781  -24.6864 C   0  0  0  0  0  0  0  0  0  0  0  0
  -44.7606   -4.3642  -25.4019 C   0  0  0  0  0  0  0  0  0  0  0  0
  -43.9267   -2.0863  -25.3705 C   0  0  0  0  0  0  0  0  0  0  0  0
  -44.9926   -4.2272  -26.8317 C   0  0  0  0  0  0  0  0  0  0  0  0
  -44.0768   -1.9836  -26.7041 C   0  0  0  0  0  0  0  0  0  0  0  0
  -44.6899   -3.0716  -27.4544 C   0  0  0  0  0  0  0  0  0  0  0  0
  -45.3067   -2.6960  -28.6257 O   0  0  0  0  0  0  0  0  0  0  0  0
  -44.3499   -2.1533  -29.5334 C   0  0  0  0  0  0  0  0  0  0  0  0
  -46.5830   -4.3452  -23.1081 H   0  0  0  0  0  0  0  0  0  0  0  0
  -46.4416   -1.7051  -21.1763 H   0  0  0  0  0  0  0  0  0  0  0  0
  -47.1899   -3.4820  -25.3216 H   0  0  0  0  0  0  0  0  0  0  0  0
  -50.0258    0.0614  -22.4979 H   0  0  0  0  0  0  0  0  0  0  0  0
  -44.8649   -5.2818  -24.9414 H   0  0  0  0  0  0  0  0  0  0  0  0
  -43.4746   -1.3270  -24.8376 H   0  0  0  0  0  0  0  0  0  0  0  0
  -45.3887   -5.0147  -27.3684 H   0  0  0  0  0  0  0  0  0  0  0  0
  -43.7575   -1.1340  -27.1953 H   0  0  0  0  0  0  0  0  0  0  0  0
  -44.8411   -1.8653  -30.4393 H   0  0  0  0  0  0  0  0  0  0  0  0
  -43.6056   -2.8908  -29.7502 H   0  0  0  0  0  0  0  0  0  0  0  0
  -43.8852   -1.2966  -29.0917 H   0  0  0  0  0  0  0  0  0  0  0  0
  1  4  1  0  0  0  0
  1 21  1  0  0  0  0
  2  1  1  0  0  0  0
  2 13  1  0  0  0  0
  2  3  2  0  0  0  0
  4  5  2  0  0  0  0
  5  7  1  0  0  0  0
  5 22  1  0  0  0  0
  6  4  1  0  0  0  0
  6  9  1  0  0  0  0
  7 10  1  0  0  0  0
  7 11  2  0  0  0  0
  8  6  2  0  0  0  0
  8 12  1  0  0  0  0
  9 23  1  0  0  0  0
 11  8  1  0  0  0  0
 11 24  1  0  0  0  0
 13 14  2  0  0  0  0
 14 16  1  0  0  0  0
 14 25  1  0  0  0  0
 15 13  1  0  0  0  0
 15 26  1  0  0  0  0
 16 18  2  0  0  0  0
 16 27  1  0  0  0  0
 17 15  2  0  0  0  0
 17 28  1  0  0  0  0
 18 17  1  0  0  0  0
 19 18  1  0  0  0  0
 19 20  1  0  0  0  0
 20 29  1  0  0  0  0
 20 30  1  0  0  0  0
 20 31  1  0  0  0  0
M  END
>  <minimizedAffinity>
-7.08912

$$$$

 OpenBabel07052409263D

 30 31  0  0  0  0  0  0  0  0999 V2000
  -50.8929    2.1390  -20.6592 N   0  0  0  0  0  0  0  0  0  0  0  0
  -51.8485    1.5676  -21.4699 C   0  0  0  0  0  0  0  0  0  0  0  0
  -53.0527    1.6998  -21.2898 O   0  0  0  0  0  0  0  0  0  0  0  0
  -50.3615    1.4207  -19.6139 C   0  0  0  0  0  0  0  0  0  0  0  0
  -50.8797    1.4766  -18.3725 C   0  0  0  0  0  0  0  0  0  0  0  0
  -49.0575    0.8116  -19.8221 C   0  0  0  0  0  0  0  0  0  0  0  0
  -50.0751    1.0723  -17.2299 C   0  0  0  0  0  0  0  0  0  0  0  0
  -48.3295    0.3969  -18.7685 C   0  0  0  0  0  0  0  0  0  0  0  0
  -48.8476    0.5498  -17.4153 C   0  0  0  0  0  0  0  0  0  0  0  0
  -47.7721    0.0003  -15.9964 Br  0  0  0  0  0  0  0  0  0  0  0  0
  -51.2890    0.8250  -22.6260 C   0  0  0  0  0  0  0  0  0  0  0  0
  -51.1925   -0.5165  -22.5388 C   0  0  0  0  0  0  0  0  0  0  0  0
  -50.9378    1.5068  -23.8636 C   0  0  0  0  0  0  0  0  0  0  0  0
  -50.9446   -1.2943  -23.7450 C   0  0  0  0  0  0  0  0  0  0  0  0
  -50.6963    0.7852  -24.9737 C   0  0  0  0  0  0  0  0  0  0  0  0
  -50.7825   -0.6665  -24.9255 C   0  0  0  0  0  0  0  0  0  0  0  0
  -50.3787   -1.3238  -26.0642 O   0  0  0  0  0  0  0  0  0  0  0  0
  -51.4434   -1.3612  -27.0127 C   0  0  0  0  0  0  0  0  0  0  0  0
  -50.5906    3.0606  -20.8279 H   0  0  0  0  0  0  0  0  0  0  0  0
  -51.8474    1.8062  -18.2315 H   0  0  0  0  0  0  0  0  0  0  0  0
  -48.6895    0.6971  -20.7794 H   0  0  0  0  0  0  0  0  0  0  0  0
  -50.4462    1.1863  -16.2737 H   0  0  0  0  0  0  0  0  0  0  0  0
  -47.4023   -0.0303  -18.9196 H   0  0  0  0  0  0  0  0  0  0  0  0
  -51.2933   -0.9879  -21.6263 H   0  0  0  0  0  0  0  0  0  0  0  0
  -50.8745    2.5365  -23.8894 H   0  0  0  0  0  0  0  0  0  0  0  0
  -50.8933   -2.3238  -23.6952 H   0  0  0  0  0  0  0  0  0  0  0  0
  -50.4507    1.2601  -25.8564 H   0  0  0  0  0  0  0  0  0  0  0  0
  -51.1184   -1.8743  -27.8936 H   0  0  0  0  0  0  0  0  0  0  0  0
  -51.7298   -0.3621  -27.2670 H   0  0  0  0  0  0  0  0  0  0  0  0
  -52.2807   -1.8753  -26.5889 H   0  0  0  0  0  0  0  0  0  0  0  0
  1  4  1  0  0  0  0
  1 19  1  0  0  0  0
  2  1  1  0  0  0  0
  2 11  1  0  0  0  0
  2  3  2  0  0  0  0
  4  5  2  0  0  0  0
  5  7  1  0  0  0  0
  5 20  1  0  0  0  0
  6  4  1  0  0  0  0
  6 21  1  0  0  0  0
  7  9  2  0  0  0  0
  7 22  1  0  0  0  0
  8  6  2  0  0  0  0
  8 23  1  0  0  0  0
  9  8  1  0  0  0  0
  9 10  1  0  0  0  0
 11 12  2  0  0  0  0
 12 14  1  0  0  0  0
 12 24  1  0  0  0  0
 13 11  1  0  0  0  0
 13 25  1  0  0  0  0
 14 16  2  0  0  0  0
 14 26  1  0  0  0  0
 15 13  2  0  0  0  0
 15 27  1  0  0  0  0
 16 15  1  0  0  0  0
 17 16  1  0  0  0  0
 17 18  1  0  0  0  0
 18 28  1  0  0  0  0
 18 29  1  0  0  0  0
 18 30  1  0  0  0  0
M  END
>  <minimizedAffinity>
-7.15073

$$$$

 OpenBabel07052409263D

 31 32  0  0  0  0  0  0  0  0999 V2000
  -49.6945   -0.3990  -24.2205 N   0  0  0  0  0  0  0  0  0  0  0  0
  -50.6250   -0.6364  -23.2307 C   0  0  0  0  0  0  0  0  0  0  0  0
  -51.3580   -1.6167  -23.2050 O   0  0  0  0  0  0  0  0  0  0  0  0
  -50.0649    0.2870  -25.3614 C   0  0  0  0  0  0  0  0  0  0  0  0
  -50.0005    1.6320  -25.4319 C   0  0  0  0  0  0  0  0  0  0  0  0
  -50.8354   -0.4403  -26.3701 C   0  0  0  0  0  0  0  0  0  0  0  0
  -50.8004    2.3534  -26.4092 C   0  0  0  0  0  0  0  0  0  0  0  0
  -51.5437    0.2252  -27.2972 C   0  0  0  0  0  0  0  0  0  0  0  0
  -50.8091   -1.8156  -26.3362 O   0  0  0  0  0  0  0  0  0  0  0  0
  -51.5397    1.6776  -27.3068 C   0  0  0  0  0  0  0  0  0  0  0  0
  -50.6073    0.3751  -22.1453 C   0  0  0  0  0  0  0  0  0  0  0  0
  -51.7005    1.1491  -21.9983 C   0  0  0  0  0  0  0  0  0  0  0  0
  -49.5966    0.3359  -21.0978 C   0  0  0  0  0  0  0  0  0  0  0  0
  -52.0060    1.7096  -20.6911 C   0  0  0  0  0  0  0  0  0  0  0  0
  -49.8457    0.9215  -19.9120 C   0  0  0  0  0  0  0  0  0  0  0  0
  -51.1063    1.6164  -19.6932 C   0  0  0  0  0  0  0  0  0  0  0  0
  -51.4536    1.8045  -18.3753 O   0  0  0  0  0  0  0  0  0  0  0  0
  -50.3788    1.4117  -17.5235 C   0  0  0  0  0  0  0  0  0  0  0  0
  -48.7689   -0.7174  -24.1145 H   0  0  0  0  0  0  0  0  0  0  0  0
  -49.3814    2.1514  -24.7901 H   0  0  0  0  0  0  0  0  0  0  0  0
  -50.8007    3.3854  -26.4139 H   0  0  0  0  0  0  0  0  0  0  0  0
  -52.0900   -0.2947  -28.0017 H   0  0  0  0  0  0  0  0  0  0  0  0
  -50.3078   -2.2586  -25.6801 H   0  0  0  0  0  0  0  0  0  0  0  0
  -52.1039    2.1908  -28.0020 H   0  0  0  0  0  0  0  0  0  0  0  0
  -52.3147    1.3423  -22.8048 H   0  0  0  0  0  0  0  0  0  0  0  0
  -48.6950   -0.1380  -21.2637 H   0  0  0  0  0  0  0  0  0  0  0  0
  -52.9111    2.1781  -20.5286 H   0  0  0  0  0  0  0  0  0  0  0  0
  -49.1430    0.8780  -19.1575 H   0  0  0  0  0  0  0  0  0  0  0  0
  -50.6599    1.5622  -16.5021 H   0  0  0  0  0  0  0  0  0  0  0  0
  -49.5138    2.0009  -17.7459 H   0  0  0  0  0  0  0  0  0  0  0  0
  -50.1566    0.3773  -17.6836 H   0  0  0  0  0  0  0  0  0  0  0  0
  1  4  1  0  0  0  0
  1 19  1  0  0  0  0
  2  1  1  0  0  0  0
  2 11  1  0  0  0  0
  2  3  2  0  0  0  0
  4  5  2  0  0  0  0
  5  7  1  0  0  0  0
  5 20  1  0  0  0  0
  6  4  1  0  0  0  0
  6  9  1  0  0  0  0
  7 10  2  0  0  0  0
  7 21  1  0  0  0  0
  8  6  2  0  0  0  0
  8 22  1  0  0  0  0
  9 23  1  0  0  0  0
 10  8  1  0  0  0  0
 10 24  1  0  0  0  0
 11 12  2  0  0  0  0
 12 14  1  0  0  0  0
 12 25  1  0  0  0  0
 13 11  1  0  0  0  0
 13 26  1  0  0  0  0
 14 16  2  0  0  0  0
 14 27  1  0  0  0  0
 15 13  2  0  0  0  0
 15 28  1  0  0  0  0
 16 15  1  0  0  0  0
 17 16  1  0  0  0  0
 17 18  1  0  0  0  0
 18 29  1  0  0  0  0
 18 30  1  0  0  0  0
 18 31  1  0  0  0  0
M  END
>  <minimizedAffinity>
-7.30278

$$$$

 OpenBabel07052409263D

 34 35  0  0  0  0  0  0  0  0999 V2000
  -51.1522   -0.7215  -23.1503 N   0  0  0  0  0  0  0  0  0  0  0  0
  -50.1615   -0.7438  -22.1904 C   0  0  0  0  0  0  0  0  0  0  0  0
  -49.1850   -1.4842  -22.2154 O   0  0  0  0  0  0  0  0  0  0  0  0
  -51.0177    0.0832  -24.2615 C   0  0  0  0  0  0  0  0  0  0  0  0
  -50.5428    1.3397  -24.1877 C   0  0  0  0  0  0  0  0  0  0  0  0
  -51.3675   -0.4750  -25.5640 C   0  0  0  0  0  0  0  0  0  0  0  0
  -50.5748    2.1977  -25.3609 C   0  0  0  0  0  0  0  0  0  0  0  0
  -51.3499    0.3025  -26.6628 C   0  0  0  0  0  0  0  0  0  0  0  0
  -51.6913   -1.8135  -25.5725 O   0  0  0  0  0  0  0  0  0  0  0  0
  -50.9634    1.7094  -26.5570 C   0  0  0  0  0  0  0  0  0  0  0  0
  -51.0163    2.5371  -27.8038 C   0  0  0  0  0  0  0  0  0  0  0  0
  -50.3982    0.1979  -21.0653 C   0  0  0  0  0  0  0  0  0  0  0  0
  -49.3784    0.4484  -20.2206 C   0  0  0  0  0  0  0  0  0  0  0  0
  -51.7182    0.7553  -20.8084 C   0  0  0  0  0  0  0  0  0  0  0  0
  -49.6540    1.0845  -18.9394 C   0  0  0  0  0  0  0  0  0  0  0  0
  -51.9666    1.3555  -19.6297 C   0  0  0  0  0  0  0  0  0  0  0  0
  -50.9141    1.4453  -18.6290 C   0  0  0  0  0  0  0  0  0  0  0  0
  -51.2198    2.1817  -17.5084 O   0  0  0  0  0  0  0  0  0  0  0  0
  -50.4383    1.7374  -16.4014 C   0  0  0  0  0  0  0  0  0  0  0  0
  -51.9554   -1.2804  -23.0417 H   0  0  0  0  0  0  0  0  0  0  0  0
  -50.1561    1.6943  -23.2990 H   0  0  0  0  0  0  0  0  0  0  0  0
  -50.2980    3.1884  -25.2781 H   0  0  0  0  0  0  0  0  0  0  0  0
  -51.6090   -0.0939  -27.5797 H   0  0  0  0  0  0  0  0  0  0  0  0
  -51.6855   -2.3020  -24.7729 H   0  0  0  0  0  0  0  0  0  0  0  0
  -50.7098    3.5377  -27.5809 H   0  0  0  0  0  0  0  0  0  0  0  0
  -52.0167    2.5467  -28.1834 H   0  0  0  0  0  0  0  0  0  0  0  0
  -50.3602    2.1183  -28.5380 H   0  0  0  0  0  0  0  0  0  0  0  0
  -48.4126    0.1923  -20.4787 H   0  0  0  0  0  0  0  0  0  0  0  0
  -52.4581    0.6907  -21.5249 H   0  0  0  0  0  0  0  0  0  0  0  0
  -48.8864    1.2581  -18.2718 H   0  0  0  0  0  0  0  0  0  0  0  0
  -52.9001    1.7506  -19.4363 H   0  0  0  0  0  0  0  0  0  0  0  0
  -50.6841    2.3166  -15.5360 H   0  0  0  0  0  0  0  0  0  0  0  0
  -49.3993    1.8571  -16.6274 H   0  0  0  0  0  0  0  0  0  0  0  0
  -50.6451    0.7051  -16.2102 H   0  0  0  0  0  0  0  0  0  0  0  0
  1  4  1  0  0  0  0
  1 20  1  0  0  0  0
  2  1  1  0  0  0  0
  2 12  1  0  0  0  0
  2  3  2  0  0  0  0
  4  5  2  0  0  0  0
  5  7  1  0  0  0  0
  5 21  1  0  0  0  0
  6  4  1  0  0  0  0
  6  9  1  0  0  0  0
  7 10  2  0  0  0  0
  7 22  1  0  0  0  0
  8  6  2  0  0  0  0
  8 23  1  0  0  0  0
  9 24  1  0  0  0  0
 10  8  1  0  0  0  0
 10 11  1  0  0  0  0
 11 25  1  0  0  0  0
 11 26  1  0  0  0  0
 11 27  1  0  0  0  0
 12 13  2  0  0  0  0
 13 15  1  0  0  0  0
 13 28  1  0  0  0  0
 14 12  1  0  0  0  0
 14 29  1  0  0  0  0
 15 17  2  0  0  0  0
 15 30  1  0  0  0  0
 16 14  2  0  0  0  0
 16 31  1  0  0  0  0
 17 16  1  0  0  0  0
 18 17  1  0  0  0  0
 18 19  1  0  0  0  0
 19 32  1  0  0  0  0
 19 33  1  0  0  0  0
 19 34  1  0  0  0  0
M  END
>  <minimizedAffinity>
-7.77552

$$$$

 OpenBabel07052409263D

 30 31  0  0  0  0  0  0  0  0999 V2000
  -50.0911    0.2148  -24.3654 N   0  0  0  0  0  0  0  0  0  0  0  0
  -50.9668   -0.2092  -23.3865 C   0  0  0  0  0  0  0  0  0  0  0  0
  -51.6664   -1.2122  -23.4623 O   0  0  0  0  0  0  0  0  0  0  0  0
  -50.5693    0.8421  -25.4943 C   0  0  0  0  0  0  0  0  0  0  0  0
  -50.9534    0.1458  -26.5819 C   0  0  0  0  0  0  0  0  0  0  0  0
  -50.5022    2.2953  -25.5694 C   0  0  0  0  0  0  0  0  0  0  0  0
  -51.3342    0.8446  -27.8004 C   0  0  0  0  0  0  0  0  0  0  0  0
  -50.8432    2.9443  -26.6945 C   0  0  0  0  0  0  0  0  0  0  0  0
  -50.0739    2.9813  -24.4896 F   0  0  0  0  0  0  0  0  0  0  0  0
  -51.2844    2.1882  -27.8544 C   0  0  0  0  0  0  0  0  0  0  0  0
  -50.9598    0.6487  -22.1740 C   0  0  0  0  0  0  0  0  0  0  0  0
  -52.0492    1.4029  -21.9291 C   0  0  0  0  0  0  0  0  0  0  0  0
  -49.8951    0.5561  -21.1863 C   0  0  0  0  0  0  0  0  0  0  0  0
  -52.2700    1.9212  -20.5878 C   0  0  0  0  0  0  0  0  0  0  0  0
  -50.0685    1.1037  -19.9690 C   0  0  0  0  0  0  0  0  0  0  0  0
  -51.3049    1.8056  -19.6556 C   0  0  0  0  0  0  0  0  0  0  0  0
  -51.5500    1.9999  -18.3159 O   0  0  0  0  0  0  0  0  0  0  0  0
  -50.4784    1.4676  -17.5392 C   0  0  0  0  0  0  0  0  0  0  0  0
  -49.1236    0.0687  -24.2565 H   0  0  0  0  0  0  0  0  0  0  0  0
  -50.9776   -0.8854  -26.5509 H   0  0  0  0  0  0  0  0  0  0  0  0
  -51.6435    0.3079  -28.6258 H   0  0  0  0  0  0  0  0  0  0  0  0
  -50.7922    3.9742  -26.7352 H   0  0  0  0  0  0  0  0  0  0  0  0
  -51.5592    2.6811  -28.7185 H   0  0  0  0  0  0  0  0  0  0  0  0
  -52.7201    1.6107  -22.6853 H   0  0  0  0  0  0  0  0  0  0  0  0
  -49.0127    0.0736  -21.4177 H   0  0  0  0  0  0  0  0  0  0  0  0
  -53.1651    2.3769  -20.3509 H   0  0  0  0  0  0  0  0  0  0  0  0
  -49.3249    1.0260  -19.2577 H   0  0  0  0  0  0  0  0  0  0  0  0
  -50.6792    1.6240  -16.4999 H   0  0  0  0  0  0  0  0  0  0  0  0
  -49.5665    1.9606  -17.8044 H   0  0  0  0  0  0  0  0  0  0  0  0
  -50.3857    0.4190  -17.7307 H   0  0  0  0  0  0  0  0  0  0  0  0
  1  4  1  0  0  0  0
  1 19  1  0  0  0  0
  2  1  1  0  0  0  0
  2 11  1  0  0  0  0
  2  3  2  0  0  0  0
  4  5  2  0  0  0  0
  5  7  1  0  0  0  0
  5 20  1  0  0  0  0
  6  4  1  0  0  0  0
  6  9  1  0  0  0  0
  7 10  2  0  0  0  0
  7 21  1  0  0  0  0
  8  6  2  0  0  0  0
  8 22  1  0  0  0  0
 10  8  1  0  0  0  0
 10 23  1  0  0  0  0
 11 12  2  0  0  0  0
 12 14  1  0  0  0  0
 12 24  1  0  0  0  0
 13 11  1  0  0  0  0
 13 25  1  0  0  0  0
 14 16  2  0  0  0  0
 14 26  1  0  0  0  0
 15 13  2  0  0  0  0
 15 27  1  0  0  0  0
 16 15  1  0  0  0  0
 17 16  1  0  0  0  0
 17 18  1  0  0  0  0
 18 28  1  0  0  0  0
 18 29  1  0  0  0  0
 18 30  1  0  0  0  0
M  END
>  <minimizedAffinity>
-7.39762

$$$$

 OpenBabel07052409263D

 30 31  0  0  0  0  0  0  0  0999 V2000
  -51.6456   -0.3582  -23.6319 N   0  0  0  0  0  0  0  0  0  0  0  0
  -50.8472   -0.6451  -22.5469 C   0  0  0  0  0  0  0  0  0  0  0  0
  -50.1788   -1.6652  -22.4507 O   0  0  0  0  0  0  0  0  0  0  0  0
  -51.1516    0.3836  -24.6802 C   0  0  0  0  0  0  0  0  0  0  0  0
  -51.5281    0.1563  -25.9575 C   0  0  0  0  0  0  0  0  0  0  0  0
  -50.4968    1.6386  -24.3358 C   0  0  0  0  0  0  0  0  0  0  0  0
  -51.4018    1.2117  -26.9514 C   0  0  0  0  0  0  0  0  0  0  0  0
  -50.3585    2.6060  -25.2625 C   0  0  0  0  0  0  0  0  0  0  0  0
  -50.8415    2.3823  -26.6082 C   0  0  0  0  0  0  0  0  0  0  0  0
  -50.7131    3.3765  -27.5102 F   0  0  0  0  0  0  0  0  0  0  0  0
  -50.9207    0.3691  -21.4682 C   0  0  0  0  0  0  0  0  0  0  0  0
  -49.8609    0.5117  -20.6482 C   0  0  0  0  0  0  0  0  0  0  0  0
  -52.1637    1.0768  -21.1868 C   0  0  0  0  0  0  0  0  0  0  0  0
  -50.0172    1.2227  -19.3897 C   0  0  0  0  0  0  0  0  0  0  0  0
  -52.3098    1.7349  -20.0216 C   0  0  0  0  0  0  0  0  0  0  0  0
  -51.2142    1.7590  -19.0627 C   0  0  0  0  0  0  0  0  0  0  0  0
  -51.3845    2.6027  -17.9881 O   0  0  0  0  0  0  0  0  0  0  0  0
  -50.7663    2.0504  -16.8255 C   0  0  0  0  0  0  0  0  0  0  0  0
  -52.5738   -0.6853  -23.6575 H   0  0  0  0  0  0  0  0  0  0  0  0
  -51.9051   -0.7654  -26.2283 H   0  0  0  0  0  0  0  0  0  0  0  0
  -50.1381    1.7867  -23.3795 H   0  0  0  0  0  0  0  0  0  0  0  0
  -51.7410    1.0611  -27.9144 H   0  0  0  0  0  0  0  0  0  0  0  0
  -49.9105    3.5020  -25.0143 H   0  0  0  0  0  0  0  0  0  0  0  0
  -48.9439    0.1186  -20.9119 H   0  0  0  0  0  0  0  0  0  0  0  0
  -52.9293    1.0733  -21.8788 H   0  0  0  0  0  0  0  0  0  0  0  0
  -49.2154    1.3178  -18.7469 H   0  0  0  0  0  0  0  0  0  0  0  0
  -53.1951    2.2206  -19.8087 H   0  0  0  0  0  0  0  0  0  0  0  0
  -50.9053    2.7144  -15.9981 H   0  0  0  0  0  0  0  0  0  0  0  0
  -49.7198    1.9197  -17.0060 H   0  0  0  0  0  0  0  0  0  0  0  0
  -51.2106    1.1032  -16.6012 H   0  0  0  0  0  0  0  0  0  0  0  0
  1  4  1  0  0  0  0
  1 19  1  0  0  0  0
  2  1  1  0  0  0  0
  2 11  1  0  0  0  0
  2  3  2  0  0  0  0
  4  5  2  0  0  0  0
  5  7  1  0  0  0  0
  5 20  1  0  0  0  0
  6  4  1  0  0  0  0
  6 21  1  0  0  0  0
  7  9  2  0  0  0  0
  7 22  1  0  0  0  0
  8  6  2  0  0  0  0
  8 23  1  0  0  0  0
  9  8  1  0  0  0  0
  9 10  1  0  0  0  0
 11 12  2  0  0  0  0
 12 14  1  0  0  0  0
 12 24  1  0  0  0  0
 13 11  1  0  0  0  0
 13 25  1  0  0  0  0
 14 16  2  0  0  0  0
 14 26  1  0  0  0  0
 15 13  2  0  0  0  0
 15 27  1  0  0  0  0
 16 15  1  0  0  0  0
 17 16  1  0  0  0  0
 17 18  1  0  0  0  0
 18 28  1  0  0  0  0
 18 29  1  0  0  0  0
 18 30  1  0  0  0  0
M  END
>  <minimizedAffinity>
-7.36139

$$$$

 OpenBabel07052409263D

 30 31  0  0  0  0  0  0  0  0999 V2000
  -49.8055    0.1281  -21.6058 N   0  0  0  0  0  0  0  0  0  0  0  0
  -50.4401   -0.6213  -22.5708 C   0  0  0  0  0  0  0  0  0  0  0  0
  -50.5561   -1.8402  -22.5412 O   0  0  0  0  0  0  0  0  0  0  0  0
  -50.4783    0.6069  -20.5121 C   0  0  0  0  0  0  0  0  0  0  0  0
  -49.9449    0.5254  -19.2789 C   0  0  0  0  0  0  0  0  0  0  0  0
  -51.6379    1.4591  -20.7397 C   0  0  0  0  0  0  0  0  0  0  0  0
  -50.4308    1.3889  -18.2157 C   0  0  0  0  0  0  0  0  0  0  0  0
  -52.1124    2.2304  -19.7442 C   0  0  0  0  0  0  0  0  0  0  0  0
  -51.4731    2.2084  -18.4399 C   0  0  0  0  0  0  0  0  0  0  0  0
  -50.9314    0.1839  -23.7190 C   0  0  0  0  0  0  0  0  0  0  0  0
  -50.1736    1.2130  -24.1450 C   0  0  0  0  0  0  0  0  0  0  0  0
  -52.0760   -0.2526  -24.5064 C   0  0  0  0  0  0  0  0  0  0  0  0
  -50.3077    1.6739  -25.5181 C   0  0  0  0  0  0  0  0  0  0  0  0
  -52.2491    0.2341  -25.7495 C   0  0  0  0  0  0  0  0  0  0  0  0
  -51.3086    1.2069  -26.2890 C   0  0  0  0  0  0  0  0  0  0  0  0
  -51.2751    1.2890  -27.6624 O   0  0  0  0  0  0  0  0  0  0  0  0
  -51.6172    2.6093  -28.0811 C   0  0  0  0  0  0  0  0  0  0  0  0
  -48.8458    0.3246  -21.7038 H   0  0  0  0  0  0  0  0  0  0  0  0
  -49.1896   -0.1514  -19.0881 H   0  0  0  0  0  0  0  0  0  0  0  0
  -52.0955    1.4713  -21.6646 H   0  0  0  0  0  0  0  0  0  0  0  0
  -49.9763    1.3732  -17.2893 H   0  0  0  0  0  0  0  0  0  0  0  0
  -52.9307    2.8377  -19.9074 H   0  0  0  0  0  0  0  0  0  0  0  0
  -51.8189    2.8217  -17.6854 H   0  0  0  0  0  0  0  0  0  0  0  0
  -49.5054    1.6692  -23.5044 H   0  0  0  0  0  0  0  0  0  0  0  0
  -52.7491   -0.9297  -24.1145 H   0  0  0  0  0  0  0  0  0  0  0  0
  -49.6367    2.3580  -25.9012 H   0  0  0  0  0  0  0  0  0  0  0  0
  -53.0485   -0.0821  -26.3205 H   0  0  0  0  0  0  0  0  0  0  0  0
  -51.5885    2.6634  -29.1493 H   0  0  0  0  0  0  0  0  0  0  0  0
  -50.9175    3.3065  -27.6697 H   0  0  0  0  0  0  0  0  0  0  0  0
  -52.6022    2.8482  -27.7382 H   0  0  0  0  0  0  0  0  0  0  0  0
  1  4  1  0  0  0  0
  1 18  1  0  0  0  0
  2  1  1  0  0  0  0
  2 10  1  0  0  0  0
  2  3  2  0  0  0  0
  4  5  2  0  0  0  0
  5  7  1  0  0  0  0
  5 19  1  0  0  0  0
  6  4  1  0  0  0  0
  6 20  1  0  0  0  0
  7  9  2  0  0  0  0
  7 21  1  0  0  0  0
  8  6  2  0  0  0  0
  8 22  1  0  0  0  0
  9  8  1  0  0  0  0
  9 23  1  0  0  0  0
 10 11  2  0  0  0  0
 11 13  1  0  0  0  0
 11 24  1  0  0  0  0
 12 10  1  0  0  0  0
 12 25  1  0  0  0  0
 13 15  2  0  0  0  0
 13 26  1  0  0  0  0
 14 12  2  0  0  0  0
 14 27  1  0  0  0  0
 15 14  1  0  0  0  0
 16 15  1  0  0  0  0
 16 17  1  0  0  0  0
 17 28  1  0  0  0  0
 17 29  1  0  0  0  0
 17 30  1  0  0  0  0
M  END
>  <minimizedAffinity>
-6.95729

$$$$

 OpenBabel07052409263D

 30 31  0  0  0  0  0  0  0  0999 V2000
  -51.1873    0.0028  -22.7512 N   0  0  0  0  0  0  0  0  0  0  0  0
  -50.0558   -0.0187  -21.9598 C   0  0  0  0  0  0  0  0  0  0  0  0
  -49.0429   -0.6627  -22.2048 O   0  0  0  0  0  0  0  0  0  0  0  0
  -51.1611    0.6389  -23.9720 C   0  0  0  0  0  0  0  0  0  0  0  0
  -50.7021    1.9003  -24.0994 C   0  0  0  0  0  0  0  0  0  0  0  0
  -51.4661   -0.1332  -25.1714 C   0  0  0  0  0  0  0  0  0  0  0  0
  -50.5270    2.4816  -25.4226 C   0  0  0  0  0  0  0  0  0  0  0  0
  -51.3050    0.3978  -26.3937 C   0  0  0  0  0  0  0  0  0  0  0  0
  -51.8996   -1.4029  -25.0318 F   0  0  0  0  0  0  0  0  0  0  0  0
  -50.8217    1.7556  -26.5132 C   0  0  0  0  0  0  0  0  0  0  0  0
  -50.6720    2.2745  -27.7472 F   0  0  0  0  0  0  0  0  0  0  0  0
  -50.1839    0.7953  -20.7241 C   0  0  0  0  0  0  0  0  0  0  0  0
  -49.2097    0.6891  -19.7994 C   0  0  0  0  0  0  0  0  0  0  0  0
  -51.4115    1.5125  -20.4146 C   0  0  0  0  0  0  0  0  0  0  0  0
  -49.4922    1.0604  -18.4213 C   0  0  0  0  0  0  0  0  0  0  0  0
  -51.6408    1.9231  -19.1534 C   0  0  0  0  0  0  0  0  0  0  0  0
  -50.6524    1.6717  -18.1143 C   0  0  0  0  0  0  0  0  0  0  0  0
  -51.1231    1.7455  -16.8234 O   0  0  0  0  0  0  0  0  0  0  0  0
  -50.0805    1.4289  -15.9027 C   0  0  0  0  0  0  0  0  0  0  0  0
  -52.0125   -0.4366  -22.4425 H   0  0  0  0  0  0  0  0  0  0  0  0
  -50.4748    2.4539  -23.2586 H   0  0  0  0  0  0  0  0  0  0  0  0
  -50.1778    3.4476  -25.5221 H   0  0  0  0  0  0  0  0  0  0  0  0
  -51.5232   -0.1556  -27.2370 H   0  0  0  0  0  0  0  0  0  0  0  0
  -48.2729    0.3479  -20.0659 H   0  0  0  0  0  0  0  0  0  0  0  0
  -52.1018    1.7051  -21.1572 H   0  0  0  0  0  0  0  0  0  0  0  0
  -48.8043    0.8556  -17.6798 H   0  0  0  0  0  0  0  0  0  0  0  0
  -52.5175    2.4163  -18.9229 H   0  0  0  0  0  0  0  0  0  0  0  0
  -50.4570    1.4893  -14.9030 H   0  0  0  0  0  0  0  0  0  0  0  0
  -49.2753    2.1232  -16.0231 H   0  0  0  0  0  0  0  0  0  0  0  0
  -49.7271    0.4367  -16.0914 H   0  0  0  0  0  0  0  0  0  0  0  0
  1  4  1  0  0  0  0
  1 20  1  0  0  0  0
  2  1  1  0  0  0  0
  2 12  1  0  0  0  0
  2  3  2  0  0  0  0
  4  5  2  0  0  0  0
  5  7  1  0  0  0  0
  5 21  1  0  0  0  0
  6  4  1  0  0  0  0
  6  9  1  0  0  0  0
  7 10  2  0  0  0  0
  7 22  1  0  0  0  0
  8  6  2  0  0  0  0
  8 23  1  0  0  0  0
 10  8  1  0  0  0  0
 10 11  1  0  0  0  0
 12 13  2  0  0  0  0
 13 15  1  0  0  0  0
 13 24  1  0  0  0  0
 14 12  1  0  0  0  0
 14 25  1  0  0  0  0
 15 17  2  0  0  0  0
 15 26  1  0  0  0  0
 16 14  2  0  0  0  0
 16 27  1  0  0  0  0
 17 16  1  0  0  0  0
 18 17  1  0  0  0  0
 18 19  1  0  0  0  0
 19 28  1  0  0  0  0
 19 29  1  0  0  0  0
 19 30  1  0  0  0  0
M  END
>  <minimizedAffinity>
-7.37888

$$$$

 OpenBabel07052409263D

 36 37  0  0  0  0  0  0  0  0999 V2000
  -52.1632    0.9240  -18.6536 N   0  0  0  0  0  0  0  0  0  0  0  0
  -52.2740    1.7943  -19.7193 C   0  0  0  0  0  0  0  0  0  0  0  0
  -52.6717    2.9502  -19.6323 O   0  0  0  0  0  0  0  0  0  0  0  0
  -50.9884    0.8618  -17.9339 C   0  0  0  0  0  0  0  0  0  0  0  0
  -49.9902    0.0183  -18.2570 C   0  0  0  0  0  0  0  0  0  0  0  0
  -50.8449    1.7419  -16.7788 C   0  0  0  0  0  0  0  0  0  0  0  0
  -48.8637   -0.1682  -17.3465 C   0  0  0  0  0  0  0  0  0  0  0  0
  -49.7877    1.6107  -15.9577 C   0  0  0  0  0  0  0  0  0  0  0  0
  -51.8359    2.6825  -16.6175 O   0  0  0  0  0  0  0  0  0  0  0  0
  -47.4218   -1.5844  -17.7612 I   0  0  0  0  0  0  0  0  0  0  0  0
  -48.7777    0.6009  -16.2405 C   0  0  0  0  0  0  0  0  0  0  0  0
  -51.9080    1.1918  -21.0278 C   0  0  0  0  0  0  0  0  0  0  0  0
  -52.7310    1.3973  -22.0736 C   0  0  0  0  0  0  0  0  0  0  0  0
  -50.5936    0.6100  -21.2477 C   0  0  0  0  0  0  0  0  0  0  0  0
  -52.1971    1.3108  -23.4245 C   0  0  0  0  0  0  0  0  0  0  0  0
  -50.0982    0.5535  -22.4979 C   0  0  0  0  0  0  0  0  0  0  0  0
  -50.8793    1.0817  -23.6192 C   0  0  0  0  0  0  0  0  0  0  0  0
  -50.1313    1.4629  -24.8814 C   0  0  0  0  0  0  0  0  0  0  0  0
  -50.6240    0.6608  -26.0886 C   0  0  0  0  0  0  0  0  0  0  0  0
  -50.2124    2.9669  -25.1610 C   0  0  0  0  0  0  0  0  0  0  0  0
  -52.9226    0.3479  -18.4074 H   0  0  0  0  0  0  0  0  0  0  0  0
  -50.0211   -0.4977  -19.1502 H   0  0  0  0  0  0  0  0  0  0  0  0
  -49.6930    2.2223  -15.1319 H   0  0  0  0  0  0  0  0  0  0  0  0
  -52.5476    2.7222  -17.2256 H   0  0  0  0  0  0  0  0  0  0  0  0
  -47.9880    0.4718  -15.5888 H   0  0  0  0  0  0  0  0  0  0  0  0
  -53.7282    1.6135  -21.9189 H   0  0  0  0  0  0  0  0  0  0  0  0
  -50.0461    0.2441  -20.4531 H   0  0  0  0  0  0  0  0  0  0  0  0
  -52.8256    1.4245  -24.2351 H   0  0  0  0  0  0  0  0  0  0  0  0
  -49.1686    0.1383  -22.6665 H   0  0  0  0  0  0  0  0  0  0  0  0
  -49.1026    1.2184  -24.7173 H   0  0  0  0  0  0  0  0  0  0  0  0
  -51.6530    0.8891  -26.2726 H   0  0  0  0  0  0  0  0  0  0  0  0
  -50.5211   -0.3852  -25.8879 H   0  0  0  0  0  0  0  0  0  0  0  0
  -50.0422    0.9178  -26.9491 H   0  0  0  0  0  0  0  0  0  0  0  0
  -51.2321    3.2438  -25.3298 H   0  0  0  0  0  0  0  0  0  0  0  0
  -49.6311    3.2003  -26.0285 H   0  0  0  0  0  0  0  0  0  0  0  0
  -49.8307    3.5071  -24.3200 H   0  0  0  0  0  0  0  0  0  0  0  0
  1  4  1  0  0  0  0
  1 21  1  0  0  0  0
  2  1  1  0  0  0  0
  2 12  1  0  0  0  0
  2  3  2  0  0  0  0
  4  5  2  0  0  0  0
  5  7  1  0  0  0  0
  5 22  1  0  0  0  0
  6  4  1  0  0  0  0
  6  9  1  0  0  0  0
  7 10  1  0  0  0  0
  7 11  2  0  0  0  0
  8  6  2  0  0  0  0
  8 23  1  0  0  0  0
  9 24  1  0  0  0  0
 11  8  1  0  0  0  0
 11 25  1  0  0  0  0
 12 13  2  0  0  0  0
 13 15  1  0  0  0  0
 13 26  1  0  0  0  0
 14 12  1  0  0  0  0
 14 27  1  0  0  0  0
 15 17  2  0  0  0  0
 15 28  1  0  0  0  0
 16 14  2  0  0  0  0
 16 29  1  0  0  0  0
 17 16  1  0  0  0  0
 18 17  1  0  0  0  0
 18 19  1  0  0  0  0
 18 20  1  0  0  0  0
 18 30  1  0  0  0  0
 19 31  1  0  0  0  0
 19 32  1  0  0  0  0
 19 33  1  0  0  0  0
 20 34  1  0  0  0  0
 20 35  1  0  0  0  0
 20 36  1  0  0  0  0
M  END
>  <minimizedAffinity>
-8.65110

$$$$

 OpenBabel07052409263D

 35 36  0  0  0  0  0  0  0  0999 V2000
  -51.8899    0.2873  -20.7178 N   0  0  0  0  0  0  0  0  0  0  0  0
  -52.3029    1.4764  -21.2817 C   0  0  0  0  0  0  0  0  0  0  0  0
  -52.8042    2.4025  -20.6557 O   0  0  0  0  0  0  0  0  0  0  0  0
  -50.6076    0.1420  -20.2324 C   0  0  0  0  0  0  0  0  0  0  0  0
  -50.2566    0.6784  -19.0467 C   0  0  0  0  0  0  0  0  0  0  0  0
  -49.5878   -0.5452  -21.0391 C   0  0  0  0  0  0  0  0  0  0  0  0
  -48.8536    0.8354  -18.7058 C   0  0  0  0  0  0  0  0  0  0  0  0
  -48.2915   -0.4584  -20.6741 C   0  0  0  0  0  0  0  0  0  0  0  0
  -50.1056   -1.5648  -22.5197 Br  0  0  0  0  0  0  0  0  0  0  0  0
  -47.9069    0.2912  -19.4905 C   0  0  0  0  0  0  0  0  0  0  0  0
  -52.1365    1.5278  -22.7559 C   0  0  0  0  0  0  0  0  0  0  0  0
  -53.0682    0.9254  -23.5192 C   0  0  0  0  0  0  0  0  0  0  0  0
  -50.9209    2.0416  -23.3638 C   0  0  0  0  0  0  0  0  0  0  0  0
  -52.7295    0.5416  -24.8821 C   0  0  0  0  0  0  0  0  0  0  0  0
  -50.6164    1.6977  -24.6282 C   0  0  0  0  0  0  0  0  0  0  0  0
  -51.5038    0.8110  -25.3857 C   0  0  0  0  0  0  0  0  0  0  0  0
  -50.9564    0.1881  -26.6571 C   0  0  0  0  0  0  0  0  0  0  0  0
  -51.1997    1.0852  -27.8739 C   0  0  0  0  0  0  0  0  0  0  0  0
  -51.5245   -1.2134  -26.8945 C   0  0  0  0  0  0  0  0  0  0  0  0
  -52.5191   -0.4678  -20.6612 H   0  0  0  0  0  0  0  0  0  0  0  0
  -50.9856    0.9778  -18.3804 H   0  0  0  0  0  0  0  0  0  0  0  0
  -48.5834    1.3643  -17.8618 H   0  0  0  0  0  0  0  0  0  0  0  0
  -47.5677   -0.9282  -21.2402 H   0  0  0  0  0  0  0  0  0  0  0  0
  -46.9093    0.4058  -19.2525 H   0  0  0  0  0  0  0  0  0  0  0  0
  -54.0106    0.7381  -23.1427 H   0  0  0  0  0  0  0  0  0  0  0  0
  -50.2960    2.6655  -22.8297 H   0  0  0  0  0  0  0  0  0  0  0  0
  -53.4298    0.0606  -25.4680 H   0  0  0  0  0  0  0  0  0  0  0  0
  -49.7549    2.0596  -25.0662 H   0  0  0  0  0  0  0  0  0  0  0  0
  -49.8990    0.0923  -26.5239 H   0  0  0  0  0  0  0  0  0  0  0  0
  -52.2524    1.1975  -28.0294 H   0  0  0  0  0  0  0  0  0  0  0  0
  -50.7568    0.6394  -28.7399 H   0  0  0  0  0  0  0  0  0  0  0  0
  -50.7600    2.0455  -27.7026 H   0  0  0  0  0  0  0  0  0  0  0  0
  -52.5838   -1.1503  -27.0317 H   0  0  0  0  0  0  0  0  0  0  0  0
  -51.3106   -1.8329  -26.0487 H   0  0  0  0  0  0  0  0  0  0  0  0
  -51.0762   -1.6366  -27.7691 H   0  0  0  0  0  0  0  0  0  0  0  0
  1  4  1  0  0  0  0
  1 20  1  0  0  0  0
  2  1  1  0  0  0  0
  2 11  1  0  0  0  0
  2  3  2  0  0  0  0
  4  5  2  0  0  0  0
  5  7  1  0  0  0  0
  5 21  1  0  0  0  0
  6  4  1  0  0  0  0
  6  9  1  0  0  0  0
  7 10  2  0  0  0  0
  7 22  1  0  0  0  0
  8  6  2  0  0  0  0
  8 23  1  0  0  0  0
 10  8  1  0  0  0  0
 10 24  1  0  0  0  0
 11 12  2  0  0  0  0
 12 14  1  0  0  0  0
 12 25  1  0  0  0  0
 13 11  1  0  0  0  0
 13 26  1  0  0  0  0
 14 16  2  0  0  0  0
 14 27  1  0  0  0  0
 15 13  2  0  0  0  0
 15 28  1  0  0  0  0
 16 15  1  0  0  0  0
 17 16  1  0  0  0  0
 17 18  1  0  0  0  0
 17 19  1  0  0  0  0
 17 29  1  0  0  0  0
 18 30  1  0  0  0  0
 18 31  1  0  0  0  0
 18 32  1  0  0  0  0
 19 33  1  0  0  0  0
 19 34  1  0  0  0  0
 19 35  1  0  0  0  0
M  END
>  <minimizedAffinity>
-7.28748

$$$$

 OpenBabel07052409263D

 38 39  0  0  0  0  0  0  0  0999 V2000
  -51.3052   -0.6359  -23.0177 N   0  0  0  0  0  0  0  0  0  0  0  0
  -50.3721   -0.8333  -22.0241 C   0  0  0  0  0  0  0  0  0  0  0  0
  -49.6608   -1.8255  -21.9238 O   0  0  0  0  0  0  0  0  0  0  0  0
  -50.9676   -0.0410  -24.2059 C   0  0  0  0  0  0  0  0  0  0  0  0
  -50.3606    1.1598  -24.2457 C   0  0  0  0  0  0  0  0  0  0  0  0
  -51.5684   -0.5794  -25.4152 C   0  0  0  0  0  0  0  0  0  0  0  0
  -50.4449    1.9805  -25.4434 C   0  0  0  0  0  0  0  0  0  0  0  0
  -51.6114    0.1612  -26.5377 C   0  0  0  0  0  0  0  0  0  0  0  0
  -51.0455    1.5073  -26.5544 C   0  0  0  0  0  0  0  0  0  0  0  0
  -51.1612    2.2886  -27.8267 C   0  0  0  0  0  0  0  0  0  0  0  0
  -50.3327    0.2611  -21.0210 C   0  0  0  0  0  0  0  0  0  0  0  0
  -49.1975    0.4339  -20.3176 C   0  0  0  0  0  0  0  0  0  0  0  0
  -51.5443    0.9540  -20.6144 C   0  0  0  0  0  0  0  0  0  0  0  0
  -49.2717    1.0311  -18.9913 C   0  0  0  0  0  0  0  0  0  0  0  0
  -51.6089    1.5021  -19.3870 C   0  0  0  0  0  0  0  0  0  0  0  0
  -50.4690    1.3879  -18.4742 C   0  0  0  0  0  0  0  0  0  0  0  0
  -50.7433    1.5252  -16.9890 C   0  0  0  0  0  0  0  0  0  0  0  0
  -49.5383    1.0919  -16.1488 C   0  0  0  0  0  0  0  0  0  0  0  0
  -51.1767    2.9467  -16.6207 C   0  0  0  0  0  0  0  0  0  0  0  0
  -52.2339   -0.9281  -22.8717 H   0  0  0  0  0  0  0  0  0  0  0  0
  -49.8346    1.4986  -23.4250 H   0  0  0  0  0  0  0  0  0  0  0  0
  -51.9633   -1.5329  -25.4127 H   0  0  0  0  0  0  0  0  0  0  0  0
  -50.0426    2.9309  -25.4432 H   0  0  0  0  0  0  0  0  0  0  0  0
  -52.0463   -0.2238  -27.3907 H   0  0  0  0  0  0  0  0  0  0  0  0
  -50.7078    3.2492  -27.6978 H   0  0  0  0  0  0  0  0  0  0  0  0
  -52.1942    2.4124  -28.0766 H   0  0  0  0  0  0  0  0  0  0  0  0
  -50.6642    1.7625  -28.6148 H   0  0  0  0  0  0  0  0  0  0  0  0
  -48.2882    0.1473  -20.7126 H   0  0  0  0  0  0  0  0  0  0  0  0
  -52.3463    1.0248  -21.2601 H   0  0  0  0  0  0  0  0  0  0  0  0
  -48.4091    1.1822  -18.4453 H   0  0  0  0  0  0  0  0  0  0  0  0
  -52.4609    2.0025  -19.0891 H   0  0  0  0  0  0  0  0  0  0  0  0
  -51.5558    0.8665  -16.7633 H   0  0  0  0  0  0  0  0  0  0  0  0
  -48.7092    1.7359  -16.3556 H   0  0  0  0  0  0  0  0  0  0  0  0
  -49.2767    0.0837  -16.3938 H   0  0  0  0  0  0  0  0  0  0  0  0
  -49.7872    1.1534  -15.1100 H   0  0  0  0  0  0  0  0  0  0  0  0
  -50.3814    3.6292  -16.8364 H   0  0  0  0  0  0  0  0  0  0  0  0
  -51.4102    2.9893  -15.5774 H   0  0  0  0  0  0  0  0  0  0  0  0
  -52.0414    3.2150  -17.1910 H   0  0  0  0  0  0  0  0  0  0  0  0
  1  4  1  0  0  0  0
  1 20  1  0  0  0  0
  2  1  1  0  0  0  0
  2 11  1  0  0  0  0
  2  3  2  0  0  0  0
  4  5  2  0  0  0  0
  5  7  1  0  0  0  0
  5 21  1  0  0  0  0
  6  4  1  0  0  0  0
  6 22  1  0  0  0  0
  7  9  2  0  0  0  0
  7 23  1  0  0  0  0
  8  6  2  0  0  0  0
  8 24  1  0  0  0  0
  9  8  1  0  0  0  0
  9 10  1  0  0  0  0
 10 25  1  0  0  0  0
 10 26  1  0  0  0  0
 10 27  1  0  0  0  0
 11 12  2  0  0  0  0
 12 14  1  0  0  0  0
 12 28  1  0  0  0  0
 13 11  1  0  0  0  0
 13 29  1  0  0  0  0
 14 16  2  0  0  0  0
 14 30  1  0  0  0  0
 15 13  2  0  0  0  0
 15 31  1  0  0  0  0
 16 15  1  0  0  0  0
 17 16  1  0  0  0  0
 17 18  1  0  0  0  0
 17 19  1  0  0  0  0
 17 32  1  0  0  0  0
 18 33  1  0  0  0  0
 18 34  1  0  0  0  0
 18 35  1  0  0  0  0
 19 36  1  0  0  0  0
 19 37  1  0  0  0  0
 19 38  1  0  0  0  0
M  END
>  <minimizedAffinity>
-8.06506

$$$$

 OpenBabel07052409263D

 35 36  0  0  0  0  0  0  0  0999 V2000
  -49.9488   -0.1699  -24.3628 N   0  0  0  0  0  0  0  0  0  0  0  0
  -50.7770   -0.4970  -23.3077 C   0  0  0  0  0  0  0  0  0  0  0  0
  -51.6133   -1.3925  -23.3332 O   0  0  0  0  0  0  0  0  0  0  0  0
  -50.3766    0.6950  -25.3479 C   0  0  0  0  0  0  0  0  0  0  0  0
  -50.2863    2.0301  -25.1853 C   0  0  0  0  0  0  0  0  0  0  0  0
  -50.9987    0.1652  -26.5655 C   0  0  0  0  0  0  0  0  0  0  0  0
  -50.6453    2.9284  -26.2693 C   0  0  0  0  0  0  0  0  0  0  0  0
  -51.3694    1.0048  -27.5514 C   0  0  0  0  0  0  0  0  0  0  0  0
  -51.2928   -1.5276  -26.7175 Cl  0  0  0  0  0  0  0  0  0  0  0  0
  -51.1619    2.4360  -27.4089 C   0  0  0  0  0  0  0  0  0  0  0  0
  -50.5424    0.3183  -22.0893 C   0  0  0  0  0  0  0  0  0  0  0  0
  -51.5609    1.0570  -21.6131 C   0  0  0  0  0  0  0  0  0  0  0  0
  -49.3283    0.1709  -21.3064 C   0  0  0  0  0  0  0  0  0  0  0  0
  -51.5541    1.4602  -20.2140 C   0  0  0  0  0  0  0  0  0  0  0  0
  -49.3220    0.5509  -20.0157 C   0  0  0  0  0  0  0  0  0  0  0  0
  -50.5306    1.1080  -19.4058 C   0  0  0  0  0  0  0  0  0  0  0  0
  -50.6239    1.2191  -17.8969 C   0  0  0  0  0  0  0  0  0  0  0  0
  -51.1871    2.5740  -17.4592 C   0  0  0  0  0  0  0  0  0  0  0  0
  -49.2852    0.9369  -17.2065 C   0  0  0  0  0  0  0  0  0  0  0  0
  -49.0451   -0.5574  -24.4123 H   0  0  0  0  0  0  0  0  0  0  0  0
  -49.9603    2.4164  -24.2856 H   0  0  0  0  0  0  0  0  0  0  0  0
  -50.5037    3.9453  -26.1645 H   0  0  0  0  0  0  0  0  0  0  0  0
  -51.8020    0.6306  -28.4104 H   0  0  0  0  0  0  0  0  0  0  0  0
  -51.4107    3.0736  -28.1813 H   0  0  0  0  0  0  0  0  0  0  0  0
  -52.3383    1.3348  -22.2324 H   0  0  0  0  0  0  0  0  0  0  0  0
  -48.4767   -0.2224  -21.7367 H   0  0  0  0  0  0  0  0  0  0  0  0
  -52.3361    2.0185  -19.8375 H   0  0  0  0  0  0  0  0  0  0  0  0
  -48.4623    0.4493  -19.4538 H   0  0  0  0  0  0  0  0  0  0  0  0
  -51.3101    0.4602  -17.5836 H   0  0  0  0  0  0  0  0  0  0  0  0
  -50.5182    3.3527  -17.7611 H   0  0  0  0  0  0  0  0  0  0  0  0
  -51.2942    2.5886  -16.3947 H   0  0  0  0  0  0  0  0  0  0  0  0
  -52.1425    2.7275  -17.9160 H   0  0  0  0  0  0  0  0  0  0  0  0
  -48.5708    1.6786  -17.4969 H   0  0  0  0  0  0  0  0  0  0  0  0
  -48.9320   -0.0309  -17.4953 H   0  0  0  0  0  0  0  0  0  0  0  0
  -49.4181    0.9660  -16.1452 H   0  0  0  0  0  0  0  0  0  0  0  0
  1  4  1  0  0  0  0
  1 20  1  0  0  0  0
  2  1  1  0  0  0  0
  2 11  1  0  0  0  0
  2  3  2  0  0  0  0
  4  5  2  0  0  0  0
  5  7  1  0  0  0  0
  5 21  1  0  0  0  0
  6  4  1  0  0  0  0
  6  9  1  0  0  0  0
  7 10  2  0  0  0  0
  7 22  1  0  0  0  0
  8  6  2  0  0  0  0
  8 23  1  0  0  0  0
 10  8  1  0  0  0  0
 10 24  1  0  0  0  0
 11 12  2  0  0  0  0
 12 14  1  0  0  0  0
 12 25  1  0  0  0  0
 13 11  1  0  0  0  0
 13 26  1  0  0  0  0
 14 16  2  0  0  0  0
 14 27  1  0  0  0  0
 15 13  2  0  0  0  0
 15 28  1  0  0  0  0
 16 15  1  0  0  0  0
 17 16  1  0  0  0  0
 17 18  1  0  0  0  0
 17 19  1  0  0  0  0
 17 29  1  0  0  0  0
 18 30  1  0  0  0  0
 18 31  1  0  0  0  0
 18 32  1  0  0  0  0
 19 33  1  0  0  0  0
 19 34  1  0  0  0  0
 19 35  1  0  0  0  0
M  END
>  <minimizedAffinity>
-7.87774

$$$$

 OpenBabel07052409263D

 35 36  0  0  0  0  0  0  0  0999 V2000
  -51.8700    1.0394  -18.6307 N   0  0  0  0  0  0  0  0  0  0  0  0
  -52.1624    1.8162  -19.7274 C   0  0  0  0  0  0  0  0  0  0  0  0
  -52.6354    2.9440  -19.6605 O   0  0  0  0  0  0  0  0  0  0  0  0
  -50.7310    1.2832  -17.8934 C   0  0  0  0  0  0  0  0  0  0  0  0
  -49.5676    0.6927  -18.2301 C   0  0  0  0  0  0  0  0  0  0  0  0
  -50.8929    1.8400  -16.5544 C   0  0  0  0  0  0  0  0  0  0  0  0
  -48.5402    0.4742  -17.2168 C   0  0  0  0  0  0  0  0  0  0  0  0
  -49.9359    1.6605  -15.6245 C   0  0  0  0  0  0  0  0  0  0  0  0
  -48.7195    0.9392  -15.9660 C   0  0  0  0  0  0  0  0  0  0  0  0
  -47.5253    0.7174  -14.7458 Cl  0  0  0  0  0  0  0  0  0  0  0  0
  -51.9514    1.1209  -21.0168 C   0  0  0  0  0  0  0  0  0  0  0  0
  -50.7933    0.4501  -21.1725 C   0  0  0  0  0  0  0  0  0  0  0  0
  -52.7785    1.4042  -22.1825 C   0  0  0  0  0  0  0  0  0  0  0  0
  -50.2354    0.3066  -22.5089 C   0  0  0  0  0  0  0  0  0  0  0  0
  -52.2237    1.3266  -23.4061 C   0  0  0  0  0  0  0  0  0  0  0  0
  -50.8146    0.9508  -23.5450 C   0  0  0  0  0  0  0  0  0  0  0  0
  -50.0649    1.4516  -24.7660 C   0  0  0  0  0  0  0  0  0  0  0  0
  -50.4958    0.7276  -26.0466 C   0  0  0  0  0  0  0  0  0  0  0  0
  -50.2274    2.9640  -24.9267 C   0  0  0  0  0  0  0  0  0  0  0  0
  -52.4755    0.3076  -18.3716 H   0  0  0  0  0  0  0  0  0  0  0  0
  -49.4030    0.3950  -19.2044 H   0  0  0  0  0  0  0  0  0  0  0  0
  -51.7444    2.3735  -16.3192 H   0  0  0  0  0  0  0  0  0  0  0  0
  -47.6767   -0.0365  -17.4589 H   0  0  0  0  0  0  0  0  0  0  0  0
  -50.0650    2.0339  -14.6711 H   0  0  0  0  0  0  0  0  0  0  0  0
  -50.3092    0.0442  -20.3564 H   0  0  0  0  0  0  0  0  0  0  0  0
  -53.7722    1.6598  -22.0717 H   0  0  0  0  0  0  0  0  0  0  0  0
  -49.4029   -0.2833  -22.6638 H   0  0  0  0  0  0  0  0  0  0  0  0
  -52.7895    1.5313  -24.2445 H   0  0  0  0  0  0  0  0  0  0  0  0
  -49.0298    1.2325  -24.6063 H   0  0  0  0  0  0  0  0  0  0  0  0
  -51.5299    0.9255  -26.2374 H   0  0  0  0  0  0  0  0  0  0  0  0
  -50.3504   -0.3257  -25.9270 H   0  0  0  0  0  0  0  0  0  0  0  0
  -49.9079    1.0777  -26.8693 H   0  0  0  0  0  0  0  0  0  0  0  0
  -51.2594    3.1968  -25.0873 H   0  0  0  0  0  0  0  0  0  0  0  0
  -49.6519    3.2975  -25.7649 H   0  0  0  0  0  0  0  0  0  0  0  0
  -49.8846    3.4557  -24.0404 H   0  0  0  0  0  0  0  0  0  0  0  0
  1  4  1  0  0  0  0
  1 20  1  0  0  0  0
  2  1  1  0  0  0  0
  2 11  1  0  0  0  0
  2  3  2  0  0  0  0
  4  5  2  0  0  0  0
  5  7  1  0  0  0  0
  5 21  1  0  0  0  0
  6  4  1  0  0  0  0
  6 22  1  0  0  0  0
  7  9  2  0  0  0  0
  7 23  1  0  0  0  0
  8  6  2  0  0  0  0
  8 24  1  0  0  0  0
  9  8  1  0  0  0  0
  9 10  1  0  0  0  0
 11 12  2  0  0  0  0
 12 14  1  0  0  0  0
 12 25  1  0  0  0  0
 13 11  1  0  0  0  0
 13 26  1  0  0  0  0
 14 16  2  0  0  0  0
 14 27  1  0  0  0  0
 15 13  2  0  0  0  0
 15 28  1  0  0  0  0
 16 15  1  0  0  0  0
 17 16  1  0  0  0  0
 17 18  1  0  0  0  0
 17 19  1  0  0  0  0
 17 29  1  0  0  0  0
 18 30  1  0  0  0  0
 18 31  1  0  0  0  0
 18 32  1  0  0  0  0
 19 33  1  0  0  0  0
 19 34  1  0  0  0  0
 19 35  1  0  0  0  0
M  END
>  <minimizedAffinity>
-8.38018

$$$$

 OpenBabel07052409263D

 35 36  0  0  0  0  0  0  0  0999 V2000
  -51.3941   -0.3524  -23.2363 N   0  0  0  0  0  0  0  0  0  0  0  0
  -51.0416    0.8974  -22.7776 C   0  0  0  0  0  0  0  0  0  0  0  0
  -50.8104    1.8481  -23.5135 O   0  0  0  0  0  0  0  0  0  0  0  0
  -50.4215   -1.2980  -23.4592 C   0  0  0  0  0  0  0  0  0  0  0  0
  -50.2830   -2.3782  -22.6664 C   0  0  0  0  0  0  0  0  0  0  0  0
  -49.3776   -0.9681  -24.4166 C   0  0  0  0  0  0  0  0  0  0  0  0
  -49.0212   -3.1029  -22.6428 C   0  0  0  0  0  0  0  0  0  0  0  0
  -48.2280   -1.6698  -24.4310 C   0  0  0  0  0  0  0  0  0  0  0  0
  -48.0279   -2.7672  -23.4908 C   0  0  0  0  0  0  0  0  0  0  0  0
  -46.3918   -3.6624  -23.5143 Br  0  0  0  0  0  0  0  0  0  0  0  0
  -51.0300    1.0073  -21.2985 C   0  0  0  0  0  0  0  0  0  0  0  0
  -52.1114    1.5232  -20.6855 C   0  0  0  0  0  0  0  0  0  0  0  0
  -49.8452    0.6772  -20.5238 C   0  0  0  0  0  0  0  0  0  0  0  0
  -52.0016    1.9731  -19.3070 C   0  0  0  0  0  0  0  0  0  0  0  0
  -49.7994    0.9714  -19.2105 C   0  0  0  0  0  0  0  0  0  0  0  0
  -50.9484    1.5954  -18.5485 C   0  0  0  0  0  0  0  0  0  0  0  0
  -50.9083    1.7167  -17.0365 C   0  0  0  0  0  0  0  0  0  0  0  0
  -51.2170    3.1418  -16.5645 C   0  0  0  0  0  0  0  0  0  0  0  0
  -49.5665    1.2384  -16.4756 C   0  0  0  0  0  0  0  0  0  0  0  0
  -52.3399   -0.5680  -23.4041 H   0  0  0  0  0  0  0  0  0  0  0  0
  -51.0701   -2.6912  -22.0769 H   0  0  0  0  0  0  0  0  0  0  0  0
  -49.5179   -0.1952  -25.0859 H   0  0  0  0  0  0  0  0  0  0  0  0
  -48.8860   -3.8772  -21.9741 H   0  0  0  0  0  0  0  0  0  0  0  0
  -47.4872   -1.4306  -25.1085 H   0  0  0  0  0  0  0  0  0  0  0  0
  -53.0093    1.5987  -21.1886 H   0  0  0  0  0  0  0  0  0  0  0  0
  -49.0408    0.2183  -20.9793 H   0  0  0  0  0  0  0  0  0  0  0  0
  -52.7309    2.5834  -18.9061 H   0  0  0  0  0  0  0  0  0  0  0  0
  -48.9493    0.7560  -18.6664 H   0  0  0  0  0  0  0  0  0  0  0  0
  -51.6778    1.0790  -16.6543 H   0  0  0  0  0  0  0  0  0  0  0  0
  -50.4647    3.8093  -16.9297 H   0  0  0  0  0  0  0  0  0  0  0  0
  -51.2288    3.1686  -15.4949 H   0  0  0  0  0  0  0  0  0  0  0  0
  -52.1730    3.4424  -16.9393 H   0  0  0  0  0  0  0  0  0  0  0  0
  -48.7816    1.8640  -16.8463 H   0  0  0  0  0  0  0  0  0  0  0  0
  -49.3918    0.2280  -16.7815 H   0  0  0  0  0  0  0  0  0  0  0  0
  -49.5883    1.2888  -15.4070 H   0  0  0  0  0  0  0  0  0  0  0  0
  1  4  1  0  0  0  0
  1 20  1  0  0  0  0
  2  1  1  0  0  0  0
  2 11  1  0  0  0  0
  2  3  2  0  0  0  0
  4  5  2  0  0  0  0
  5  7  1  0  0  0  0
  5 21  1  0  0  0  0
  6  4  1  0  0  0  0
  6 22  1  0  0  0  0
  7  9  2  0  0  0  0
  7 23  1  0  0  0  0
  8  6  2  0  0  0  0
  8 24  1  0  0  0  0
  9  8  1  0  0  0  0
  9 10  1  0  0  0  0
 11 12  2  0  0  0  0
 12 14  1  0  0  0  0
 12 25  1  0  0  0  0
 13 11  1  0  0  0  0
 13 26  1  0  0  0  0
 14 16  2  0  0  0  0
 14 27  1  0  0  0  0
 15 13  2  0  0  0  0
 15 28  1  0  0  0  0
 16 15  1  0  0  0  0
 17 16  1  0  0  0  0
 17 18  1  0  0  0  0
 17 19  1  0  0  0  0
 17 29  1  0  0  0  0
 18 30  1  0  0  0  0
 18 31  1  0  0  0  0
 18 32  1  0  0  0  0
 19 33  1  0  0  0  0
 19 34  1  0  0  0  0
 19 35  1  0  0  0  0
M  END
>  <minimizedAffinity>
-7.31414

$$$$

 OpenBabel07052409263D

 36 37  0  0  0  0  0  0  0  0999 V2000
  -51.7074   -0.6708  -23.9262 N   0  0  0  0  0  0  0  0  0  0  0  0
  -50.7402   -1.0284  -23.0091 C   0  0  0  0  0  0  0  0  0  0  0  0
  -50.1158   -2.0831  -23.0336 O   0  0  0  0  0  0  0  0  0  0  0  0
  -51.3612    0.0499  -25.0496 C   0  0  0  0  0  0  0  0  0  0  0  0
  -50.8920    1.3098  -24.9825 C   0  0  0  0  0  0  0  0  0  0  0  0
  -51.5251   -0.5879  -26.3538 C   0  0  0  0  0  0  0  0  0  0  0  0
  -50.7580    2.0970  -26.1976 C   0  0  0  0  0  0  0  0  0  0  0  0
  -51.3505    0.1247  -27.4826 C   0  0  0  0  0  0  0  0  0  0  0  0
  -51.8494   -1.9255  -26.3273 O   0  0  0  0  0  0  0  0  0  0  0  0
  -50.9799    1.5292  -27.3969 C   0  0  0  0  0  0  0  0  0  0  0  0
  -50.5322   -0.0257  -21.9323 C   0  0  0  0  0  0  0  0  0  0  0  0
  -49.3469   -0.0158  -21.2932 C   0  0  0  0  0  0  0  0  0  0  0  0
  -51.6362    0.7692  -21.4200 C   0  0  0  0  0  0  0  0  0  0  0  0
  -49.2682    0.5534  -19.9555 C   0  0  0  0  0  0  0  0  0  0  0  0
  -51.5635    1.2778  -20.1766 C   0  0  0  0  0  0  0  0  0  0  0  0
  -50.3808    1.0242  -19.3500 C   0  0  0  0  0  0  0  0  0  0  0  0
  -50.4786    1.1617  -17.8434 C   0  0  0  0  0  0  0  0  0  0  0  0
  -51.0940    2.5004  -17.4249 C   0  0  0  0  0  0  0  0  0  0  0  0
  -49.1258    0.9450  -17.1604 C   0  0  0  0  0  0  0  0  0  0  0  0
  -52.6454   -0.9305  -23.7782 H   0  0  0  0  0  0  0  0  0  0  0  0
  -50.6281    1.7158  -24.0712 H   0  0  0  0  0  0  0  0  0  0  0  0
  -50.4923    3.0926  -26.1400 H   0  0  0  0  0  0  0  0  0  0  0  0
  -51.4788   -0.3227  -28.4037 H   0  0  0  0  0  0  0  0  0  0  0  0
  -51.9573   -2.3652  -25.5070 H   0  0  0  0  0  0  0  0  0  0  0  0
  -50.8871    2.0908  -28.2577 H   0  0  0  0  0  0  0  0  0  0  0  0
  -48.5056   -0.4065  -21.7456 H   0  0  0  0  0  0  0  0  0  0  0  0
  -52.4686    0.9419  -22.0051 H   0  0  0  0  0  0  0  0  0  0  0  0
  -48.3597    0.5975  -19.4680 H   0  0  0  0  0  0  0  0  0  0  0  0
  -52.3406    1.8464  -19.8052 H   0  0  0  0  0  0  0  0  0  0  0  0
  -51.1382    0.3870  -17.5122 H   0  0  0  0  0  0  0  0  0  0  0  0
  -50.4576    3.3001  -17.7417 H   0  0  0  0  0  0  0  0  0  0  0  0
  -51.1981    2.5278  -16.3603 H   0  0  0  0  0  0  0  0  0  0  0  0
  -52.0562    2.6085  -17.8803 H   0  0  0  0  0  0  0  0  0  0  0  0
  -48.4424    1.7068  -17.4728 H   0  0  0  0  0  0  0  0  0  0  0  0
  -48.7387   -0.0147  -17.4323 H   0  0  0  0  0  0  0  0  0  0  0  0
  -49.2508    0.9915  -16.0987 H   0  0  0  0  0  0  0  0  0  0  0  0
  1  4  1  0  0  0  0
  1 20  1  0  0  0  0
  2  1  1  0  0  0  0
  2 11  1  0  0  0  0
  2  3  2  0  0  0  0
  4  5  2  0  0  0  0
  5  7  1  0  0  0  0
  5 21  1  0  0  0  0
  6  4  1  0  0  0  0
  6  9  1  0  0  0  0
  7 10  2  0  0  0  0
  7 22  1  0  0  0  0
  8  6  2  0  0  0  0
  8 23  1  0  0  0  0
  9 24  1  0  0  0  0
 10  8  1  0  0  0  0
 10 25  1  0  0  0  0
 11 12  2  0  0  0  0
 12 14  1  0  0  0  0
 12 26  1  0  0  0  0
 13 11  1  0  0  0  0
 13 27  1  0  0  0  0
 14 16  2  0  0  0  0
 14 28  1  0  0  0  0
 15 13  2  0  0  0  0
 15 29  1  0  0  0  0
 16 15  1  0  0  0  0
 17 16  1  0  0  0  0
 17 18  1  0  0  0  0
 17 19  1  0  0  0  0
 17 30  1  0  0  0  0
 18 31  1  0  0  0  0
 18 32  1  0  0  0  0
 18 33  1  0  0  0  0
 19 34  1  0  0  0  0
 19 35  1  0  0  0  0
 19 36  1  0  0  0  0
M  END
>  <minimizedAffinity>
-8.19616

$$$$

 OpenBabel07052409263D

 39 40  0  0  0  0  0  0  0  0999 V2000
  -49.9552   -1.7670  -24.9003 N   0  0  0  0  0  0  0  0  0  0  0  0
  -48.7149   -1.7844  -24.2967 C   0  0  0  0  0  0  0  0  0  0  0  0
  -47.6649   -1.9496  -24.9047 O   0  0  0  0  0  0  0  0  0  0  0  0
  -50.4863   -0.5733  -25.3497 C   0  0  0  0  0  0  0  0  0  0  0  0
  -49.9808    0.6152  -24.9650 C   0  0  0  0  0  0  0  0  0  0  0  0
  -51.3775   -0.6214  -26.5073 C   0  0  0  0  0  0  0  0  0  0  0  0
  -50.1872    1.7995  -25.7836 C   0  0  0  0  0  0  0  0  0  0  0  0
  -51.6039    0.4805  -27.2405 C   0  0  0  0  0  0  0  0  0  0  0  0
  -51.9712   -1.8247  -26.8153 O   0  0  0  0  0  0  0  0  0  0  0  0
  -50.9693    1.7457  -26.8811 C   0  0  0  0  0  0  0  0  0  0  0  0
  -51.2357    2.9245  -27.7648 C   0  0  0  0  0  0  0  0  0  0  0  0
  -48.7688   -1.6532  -22.8198 C   0  0  0  0  0  0  0  0  0  0  0  0
  -49.9865   -1.6448  -22.2441 C   0  0  0  0  0  0  0  0  0  0  0  0
  -47.6219   -1.1576  -22.0747 C   0  0  0  0  0  0  0  0  0  0  0  0
  -50.2034   -0.8287  -21.0580 C   0  0  0  0  0  0  0  0  0  0  0  0
  -47.8238   -0.4099  -20.9744 C   0  0  0  0  0  0  0  0  0  0  0  0
  -49.1878   -0.1061  -20.5349 C   0  0  0  0  0  0  0  0  0  0  0  0
  -49.3774    1.0607  -19.5841 C   0  0  0  0  0  0  0  0  0  0  0  0
  -50.7447    1.7292  -19.7557 C   0  0  0  0  0  0  0  0  0  0  0  0
  -49.1650    0.6311  -18.1301 C   0  0  0  0  0  0  0  0  0  0  0  0
  -50.4613   -2.6042  -25.0107 H   0  0  0  0  0  0  0  0  0  0  0  0
  -49.4450    0.6853  -24.0858 H   0  0  0  0  0  0  0  0  0  0  0  0
  -49.7316    2.6880  -25.5226 H   0  0  0  0  0  0  0  0  0  0  0  0
  -52.2284    0.4331  -28.0607 H   0  0  0  0  0  0  0  0  0  0  0  0
  -51.7984   -2.5806  -26.2893 H   0  0  0  0  0  0  0  0  0  0  0  0
  -50.7127    3.7784  -27.3877 H   0  0  0  0  0  0  0  0  0  0  0  0
  -52.2860    3.1280  -27.7809 H   0  0  0  0  0  0  0  0  0  0  0  0
  -50.8988    2.7096  -28.7574 H   0  0  0  0  0  0  0  0  0  0  0  0
  -50.7553   -2.2092  -22.6384 H   0  0  0  0  0  0  0  0  0  0  0  0
  -46.6631   -1.3773  -22.3869 H   0  0  0  0  0  0  0  0  0  0  0  0
  -51.1353   -0.8018  -20.6153 H   0  0  0  0  0  0  0  0  0  0  0  0
  -47.0175   -0.0503  -20.4400 H   0  0  0  0  0  0  0  0  0  0  0  0
  -48.6325    1.7870  -19.8339 H   0  0  0  0  0  0  0  0  0  0  0  0
  -51.5169    1.0292  -19.5134 H   0  0  0  0  0  0  0  0  0  0  0  0
  -50.8599    2.0504  -20.7698 H   0  0  0  0  0  0  0  0  0  0  0  0
  -50.8125    2.5749  -19.1038 H   0  0  0  0  0  0  0  0  0  0  0  0
  -49.9023   -0.0965  -17.8618 H   0  0  0  0  0  0  0  0  0  0  0  0
  -49.2554    1.4834  -17.4895 H   0  0  0  0  0  0  0  0  0  0  0  0
  -48.1889    0.2061  -18.0227 H   0  0  0  0  0  0  0  0  0  0  0  0
  1  4  1  0  0  0  0
  1 21  1  0  0  0  0
  2  1  1  0  0  0  0
  2 12  1  0  0  0  0
  2  3  2  0  0  0  0
  4  5  2  0  0  0  0
  5  7  1  0  0  0  0
  5 22  1  0  0  0  0
  6  4  1  0  0  0  0
  6  9  1  0  0  0  0
  7 10  2  0  0  0  0
  7 23  1  0  0  0  0
  8  6  2  0  0  0  0
  8 24  1  0  0  0  0
  9 25  1  0  0  0  0
 10  8  1  0  0  0  0
 10 11  1  0  0  0  0
 11 26  1  0  0  0  0
 11 27  1  0  0  0  0
 11 28  1  0  0  0  0
 12 13  2  0  0  0  0
 13 15  1  0  0  0  0
 13 29  1  0  0  0  0
 14 12  1  0  0  0  0
 14 30  1  0  0  0  0
 15 17  2  0  0  0  0
 15 31  1  0  0  0  0
 16 14  2  0  0  0  0
 16 32  1  0  0  0  0
 17 16  1  0  0  0  0
 18 17  1  0  0  0  0
 18 19  1  0  0  0  0
 18 20  1  0  0  0  0
 18 33  1  0  0  0  0
 19 34  1  0  0  0  0
 19 35  1  0  0  0  0
 19 36  1  0  0  0  0
 20 37  1  0  0  0  0
 20 38  1  0  0  0  0
 20 39  1  0  0  0  0
M  END
>  <minimizedAffinity>
-8.39355

$$$$

 OpenBabel07052409263D

 35 36  0  0  0  0  0  0  0  0999 V2000
  -49.4446   -0.8594  -24.2031 N   0  0  0  0  0  0  0  0  0  0  0  0
  -50.0025   -1.1423  -22.9725 C   0  0  0  0  0  0  0  0  0  0  0  0
  -50.5424   -2.2029  -22.6812 O   0  0  0  0  0  0  0  0  0  0  0  0
  -50.2335   -0.3865  -25.2279 C   0  0  0  0  0  0  0  0  0  0  0  0
  -50.9264   -1.2155  -26.0323 C   0  0  0  0  0  0  0  0  0  0  0  0
  -50.2225    1.0410  -25.5188 C   0  0  0  0  0  0  0  0  0  0  0  0
  -51.7265   -0.6753  -27.1215 C   0  0  0  0  0  0  0  0  0  0  0  0
  -50.9408    1.5418  -26.5369 C   0  0  0  0  0  0  0  0  0  0  0  0
  -49.4608    1.8530  -24.7563 F   0  0  0  0  0  0  0  0  0  0  0  0
  -51.7361    0.6485  -27.3626 C   0  0  0  0  0  0  0  0  0  0  0  0
  -49.8577   -0.0427  -21.9846 C   0  0  0  0  0  0  0  0  0  0  0  0
  -50.9186    0.7621  -21.7821 C   0  0  0  0  0  0  0  0  0  0  0  0
  -48.7498   -0.0214  -21.0435 C   0  0  0  0  0  0  0  0  0  0  0  0
  -51.1007    1.3740  -20.4733 C   0  0  0  0  0  0  0  0  0  0  0  0
  -48.9264    0.5381  -19.8326 C   0  0  0  0  0  0  0  0  0  0  0  0
  -50.2268    1.1102  -19.4761 C   0  0  0  0  0  0  0  0  0  0  0  0
  -50.5674    1.2139  -18.0022 C   0  0  0  0  0  0  0  0  0  0  0  0
  -51.2576    2.5400  -17.6690 C   0  0  0  0  0  0  0  0  0  0  0  0
  -49.3301    1.0123  -17.1237 C   0  0  0  0  0  0  0  0  0  0  0  0
  -48.4805   -0.9961  -24.3484 H   0  0  0  0  0  0  0  0  0  0  0  0
  -50.8899   -2.2350  -25.8761 H   0  0  0  0  0  0  0  0  0  0  0  0
  -52.2882   -1.3095  -27.7108 H   0  0  0  0  0  0  0  0  0  0  0  0
  -50.9282    2.5551  -26.7319 H   0  0  0  0  0  0  0  0  0  0  0  0
  -52.3076    1.0291  -28.1330 H   0  0  0  0  0  0  0  0  0  0  0  0
  -51.5922    0.9423  -22.5429 H   0  0  0  0  0  0  0  0  0  0  0  0
  -47.8382   -0.4308  -21.3013 H   0  0  0  0  0  0  0  0  0  0  0  0
  -51.8969    2.0091  -20.3070 H   0  0  0  0  0  0  0  0  0  0  0  0
  -48.1472    0.5641  -19.1564 H   0  0  0  0  0  0  0  0  0  0  0  0
  -51.2576    0.4248  -17.7881 H   0  0  0  0  0  0  0  0  0  0  0  0
  -50.5900    3.3508  -17.8734 H   0  0  0  0  0  0  0  0  0  0  0  0
  -51.5265    2.5518  -16.6334 H   0  0  0  0  0  0  0  0  0  0  0  0
  -52.1385    2.6438  -18.2674 H   0  0  0  0  0  0  0  0  0  0  0  0
  -48.6228    1.7909  -17.3197 H   0  0  0  0  0  0  0  0  0  0  0  0
  -48.8867    0.0638  -17.3444 H   0  0  0  0  0  0  0  0  0  0  0  0
  -49.6159    1.0412  -16.0930 H   0  0  0  0  0  0  0  0  0  0  0  0
  1  4  1  0  0  0  0
  1 20  1  0  0  0  0
  2  1  1  0  0  0  0
  2 11  1  0  0  0  0
  2  3  2  0  0  0  0
  4  5  2  0  0  0  0
  5  7  1  0  0  0  0
  5 21  1  0  0  0  0
  6  4  1  0  0  0  0
  6  9  1  0  0  0  0
  7 10  2  0  0  0  0
  7 22  1  0  0  0  0
  8  6  2  0  0  0  0
  8 23  1  0  0  0  0
 10  8  1  0  0  0  0
 10 24  1  0  0  0  0
 11 12  2  0  0  0  0
 12 14  1  0  0  0  0
 12 25  1  0  0  0  0
 13 11  1  0  0  0  0
 13 26  1  0  0  0  0
 14 16  2  0  0  0  0
 14 27  1  0  0  0  0
 15 13  2  0  0  0  0
 15 28  1  0  0  0  0
 16 15  1  0  0  0  0
 17 16  1  0  0  0  0
 17 18  1  0  0  0  0
 17 19  1  0  0  0  0
 17 29  1  0  0  0  0
 18 30  1  0  0  0  0
 18 31  1  0  0  0  0
 18 32  1  0  0  0  0
 19 33  1  0  0  0  0
 19 34  1  0  0  0  0
 19 35  1  0  0  0  0
M  END
>  <minimizedAffinity>
-7.63858

$$$$

 OpenBabel07052409263D

 35 36  0  0  0  0  0  0  0  0999 V2000
  -51.6876   -0.1017  -23.4063 N   0  0  0  0  0  0  0  0  0  0  0  0
  -50.8637   -0.5527  -22.3990 C   0  0  0  0  0  0  0  0  0  0  0  0
  -50.4204   -1.6919  -22.3232 O   0  0  0  0  0  0  0  0  0  0  0  0
  -51.1813    0.4507  -24.5532 C   0  0  0  0  0  0  0  0  0  0  0  0
  -50.6210    1.6767  -24.5554 C   0  0  0  0  0  0  0  0  0  0  0  0
  -51.5599   -0.1722  -25.8154 C   0  0  0  0  0  0  0  0  0  0  0  0
  -50.5613    2.4445  -25.7903 C   0  0  0  0  0  0  0  0  0  0  0  0
  -51.4616    0.5212  -26.9647 C   0  0  0  0  0  0  0  0  0  0  0  0
  -50.9651    1.8805  -26.9397 C   0  0  0  0  0  0  0  0  0  0  0  0
  -50.9079    2.5632  -28.0997 F   0  0  0  0  0  0  0  0  0  0  0  0
  -50.5991    0.4634  -21.3484 C   0  0  0  0  0  0  0  0  0  0  0  0
  -51.6386    1.1983  -20.9091 C   0  0  0  0  0  0  0  0  0  0  0  0
  -49.3530    0.4614  -20.5976 C   0  0  0  0  0  0  0  0  0  0  0  0
  -51.6191    1.7108  -19.5471 C   0  0  0  0  0  0  0  0  0  0  0  0
  -49.3449    0.9239  -19.3338 C   0  0  0  0  0  0  0  0  0  0  0  0
  -50.5837    1.4206  -18.7288 C   0  0  0  0  0  0  0  0  0  0  0  0
  -50.7089    1.4838  -17.2192 C   0  0  0  0  0  0  0  0  0  0  0  0
  -49.4080    1.0922  -16.5118 C   0  0  0  0  0  0  0  0  0  0  0  0
  -51.1963    2.8554  -16.7458 C   0  0  0  0  0  0  0  0  0  0  0  0
  -52.6633   -0.1781  -23.2996 H   0  0  0  0  0  0  0  0  0  0  0  0
  -50.2350    2.0702  -23.6829 H   0  0  0  0  0  0  0  0  0  0  0  0
  -51.9035   -1.1453  -25.8278 H   0  0  0  0  0  0  0  0  0  0  0  0
  -50.2112    3.4153  -25.7825 H   0  0  0  0  0  0  0  0  0  0  0  0
  -51.7386    0.0862  -27.8586 H   0  0  0  0  0  0  0  0  0  0  0  0
  -52.4388    1.3955  -21.5303 H   0  0  0  0  0  0  0  0  0  0  0  0
  -48.4845    0.1091  -21.0295 H   0  0  0  0  0  0  0  0  0  0  0  0
  -52.3971    2.2967  -19.2058 H   0  0  0  0  0  0  0  0  0  0  0  0
  -48.4670    0.9288  -18.7912 H   0  0  0  0  0  0  0  0  0  0  0  0
  -51.4496    0.7609  -16.9480 H   0  0  0  0  0  0  0  0  0  0  0  0
  -48.6411    1.7957  -16.7605 H   0  0  0  0  0  0  0  0  0  0  0  0
  -49.1108    0.1140  -16.8276 H   0  0  0  0  0  0  0  0  0  0  0  0
  -49.5634    1.0934  -15.4531 H   0  0  0  0  0  0  0  0  0  0  0  0
  -50.4727    3.5999  -17.0046 H   0  0  0  0  0  0  0  0  0  0  0  0
  -51.3282    2.8401  -15.6841 H   0  0  0  0  0  0  0  0  0  0  0  0
  -52.1287    3.0850  -17.2178 H   0  0  0  0  0  0  0  0  0  0  0  0
  1  4  1  0  0  0  0
  1 20  1  0  0  0  0
  2  1  1  0  0  0  0
  2 11  1  0  0  0  0
  2  3  2  0  0  0  0
  4  5  2  0  0  0  0
  5  7  1  0  0  0  0
  5 21  1  0  0  0  0
  6  4  1  0  0  0  0
  6 22  1  0  0  0  0
  7  9  2  0  0  0  0
  7 23  1  0  0  0  0
  8  6  2  0  0  0  0
  8 24  1  0  0  0  0
  9  8  1  0  0  0  0
  9 10  1  0  0  0  0
 11 12  2  0  0  0  0
 12 14  1  0  0  0  0
 12 25  1  0  0  0  0
 13 11  1  0  0  0  0
 13 26  1  0  0  0  0
 14 16  2  0  0  0  0
 14 27  1  0  0  0  0
 15 13  2  0  0  0  0
 15 28  1  0  0  0  0
 16 15  1  0  0  0  0
 17 16  1  0  0  0  0
 17 18  1  0  0  0  0
 17 19  1  0  0  0  0
 17 29  1  0  0  0  0
 18 30  1  0  0  0  0
 18 31  1  0  0  0  0
 18 32  1  0  0  0  0
 19 33  1  0  0  0  0
 19 34  1  0  0  0  0
 19 35  1  0  0  0  0
M  END
>  <minimizedAffinity>
-7.95891

$$$$

 OpenBabel07052409263D

 35 36  0  0  0  0  0  0  0  0999 V2000
  -49.6517    0.0559  -24.9429 N   0  0  0  0  0  0  0  0  0  0  0  0
  -50.3017   -0.7576  -24.0415 C   0  0  0  0  0  0  0  0  0  0  0  0
  -50.7188   -1.8739  -24.3256 O   0  0  0  0  0  0  0  0  0  0  0  0
  -50.3338    1.0718  -25.5720 C   0  0  0  0  0  0  0  0  0  0  0  0
  -50.2108    2.3440  -25.1514 C   0  0  0  0  0  0  0  0  0  0  0  0
  -50.9737    0.7947  -26.8506 C   0  0  0  0  0  0  0  0  0  0  0  0
  -50.5643    3.4410  -26.0373 C   0  0  0  0  0  0  0  0  0  0  0  0
  -51.3372    1.8101  -27.6555 C   0  0  0  0  0  0  0  0  0  0  0  0
  -51.1033    3.1834  -27.2423 C   0  0  0  0  0  0  0  0  0  0  0  0
  -50.4120   -0.1829  -22.6778 C   0  0  0  0  0  0  0  0  0  0  0  0
  -49.4060   -0.3802  -21.8051 C   0  0  0  0  0  0  0  0  0  0  0  0
  -51.5969    0.5535  -22.2699 C   0  0  0  0  0  0  0  0  0  0  0  0
  -49.4509    0.2668  -20.5045 C   0  0  0  0  0  0  0  0  0  0  0  0
  -51.6798    1.0531  -21.0232 C   0  0  0  0  0  0  0  0  0  0  0  0
  -50.5915    0.8433  -20.0652 C   0  0  0  0  0  0  0  0  0  0  0  0
  -50.8162    1.1719  -18.6011 C   0  0  0  0  0  0  0  0  0  0  0  0
  -51.4893    2.5356  -18.4149 C   0  0  0  0  0  0  0  0  0  0  0  0
  -49.5240    1.0850  -17.7835 C   0  0  0  0  0  0  0  0  0  0  0  0
  -48.6976   -0.0897  -25.1374 H   0  0  0  0  0  0  0  0  0  0  0  0
  -49.8652    2.5411  -24.1992 H   0  0  0  0  0  0  0  0  0  0  0  0
  -51.1484   -0.1805  -27.1394 H   0  0  0  0  0  0  0  0  0  0  0  0
  -50.4019    4.4164  -25.7419 H   0  0  0  0  0  0  0  0  0  0  0  0
  -51.7819    1.6135  -28.5658 H   0  0  0  0  0  0  0  0  0  0  0  0
  -51.3508    3.9613  -27.8736 H   0  0  0  0  0  0  0  0  0  0  0  0
  -48.6095   -0.9859  -22.0576 H   0  0  0  0  0  0  0  0  0  0  0  0
  -52.3733    0.6930  -22.9353 H   0  0  0  0  0  0  0  0  0  0  0  0
  -48.6059    0.2861  -19.9123 H   0  0  0  0  0  0  0  0  0  0  0  0
  -52.5158    1.5878  -20.7400 H   0  0  0  0  0  0  0  0  0  0  0  0
  -51.4849    0.4254  -18.2263 H   0  0  0  0  0  0  0  0  0  0  0  0
  -50.8429    3.3054  -18.7815 H   0  0  0  0  0  0  0  0  0  0  0  0
  -51.6839    2.6983  -17.3754 H   0  0  0  0  0  0  0  0  0  0  0  0
  -52.4112    2.5554  -18.9577 H   0  0  0  0  0  0  0  0  0  0  0  0
  -48.8304    1.8208  -18.1334 H   0  0  0  0  0  0  0  0  0  0  0  0
  -49.0965    0.1104  -17.8947 H   0  0  0  0  0  0  0  0  0  0  0  0
  -49.7424    1.2630  -16.7513 H   0  0  0  0  0  0  0  0  0  0  0  0
  1  4  1  0  0  0  0
  1 19  1  0  0  0  0
  2  1  1  0  0  0  0
  2 10  1  0  0  0  0
  2  3  2  0  0  0  0
  4  5  2  0  0  0  0
  5  7  1  0  0  0  0
  5 20  1  0  0  0  0
  6  4  1  0  0  0  0
  6 21  1  0  0  0  0
  7  9  2  0  0  0  0
  7 22  1  0  0  0  0
  8  6  2  0  0  0  0
  8 23  1  0  0  0  0
  9  8  1  0  0  0  0
  9 24  1  0  0  0  0
 10 11  2  0  0  0  0
 11 13  1  0  0  0  0
 11 25  1  0  0  0  0
 12 10  1  0  0  0  0
 12 26  1  0  0  0  0
 13 15  2  0  0  0  0
 13 27  1  0  0  0  0
 14 12  2  0  0  0  0
 14 28  1  0  0  0  0
 15 14  1  0  0  0  0
 16 15  1  0  0  0  0
 16 17  1  0  0  0  0
 16 18  1  0  0  0  0
 16 29  1  0  0  0  0
 17 30  1  0  0  0  0
 17 31  1  0  0  0  0
 17 32  1  0  0  0  0
 18 33  1  0  0  0  0
 18 34  1  0  0  0  0
 18 35  1  0  0  0  0
M  END
>  <minimizedAffinity>
-7.21008

$$$$

 OpenBabel07052409263D

 35 36  0  0  0  0  0  0  0  0999 V2000
  -49.6340   -0.4603  -24.2536 N   0  0  0  0  0  0  0  0  0  0  0  0
  -50.3606   -0.6428  -23.0936 C   0  0  0  0  0  0  0  0  0  0  0  0
  -51.2537   -1.4699  -22.9564 O   0  0  0  0  0  0  0  0  0  0  0  0
  -50.1426    0.3119  -25.2735 C   0  0  0  0  0  0  0  0  0  0  0  0
  -50.0294    1.6552  -25.2709 C   0  0  0  0  0  0  0  0  0  0  0  0
  -50.9330   -0.3360  -26.3142 C   0  0  0  0  0  0  0  0  0  0  0  0
  -50.6320    2.4373  -26.3410 C   0  0  0  0  0  0  0  0  0  0  0  0
  -51.5050    0.3824  -27.2932 C   0  0  0  0  0  0  0  0  0  0  0  0
  -51.0952   -1.6747  -26.2666 F   0  0  0  0  0  0  0  0  0  0  0  0
  -51.3336    1.8184  -27.3042 C   0  0  0  0  0  0  0  0  0  0  0  0
  -51.9005    2.5217  -28.3032 F   0  0  0  0  0  0  0  0  0  0  0  0
  -49.9401    0.2461  -21.9806 C   0  0  0  0  0  0  0  0  0  0  0  0
  -50.8244    1.1642  -21.5456 C   0  0  0  0  0  0  0  0  0  0  0  0
  -48.7798   -0.0746  -21.1652 C   0  0  0  0  0  0  0  0  0  0  0  0
  -50.8064    1.5515  -20.1420 C   0  0  0  0  0  0  0  0  0  0  0  0
  -48.7703    0.2807  -19.8674 C   0  0  0  0  0  0  0  0  0  0  0  0
  -49.9239    0.9776  -19.2938 C   0  0  0  0  0  0  0  0  0  0  0  0
  -50.1377    0.8670  -17.7967 C   0  0  0  0  0  0  0  0  0  0  0  0
  -50.8698    2.0896  -17.2351 C   0  0  0  0  0  0  0  0  0  0  0  0
  -48.8186    0.6381  -17.0541 C   0  0  0  0  0  0  0  0  0  0  0  0
  -48.7504   -0.8833  -24.3514 H   0  0  0  0  0  0  0  0  0  0  0  0
  -49.5161    2.1288  -24.5111 H   0  0  0  0  0  0  0  0  0  0  0  0
  -50.5204    3.4631  -26.3591 H   0  0  0  0  0  0  0  0  0  0  0  0
  -52.0596   -0.0837  -28.0282 H   0  0  0  0  0  0  0  0  0  0  0  0
  -51.5043    1.5867  -22.1970 H   0  0  0  0  0  0  0  0  0  0  0  0
  -47.9729   -0.5690  -21.5770 H   0  0  0  0  0  0  0  0  0  0  0  0
  -51.4673    2.2640  -19.7948 H   0  0  0  0  0  0  0  0  0  0  0  0
  -47.9521    0.0627  -19.2775 H   0  0  0  0  0  0  0  0  0  0  0  0
  -50.7598    0.0114  -17.6359 H   0  0  0  0  0  0  0  0  0  0  0  0
  -50.2698    2.9633  -17.3821 H   0  0  0  0  0  0  0  0  0  0  0  0
  -51.0465    1.9501  -16.1890 H   0  0  0  0  0  0  0  0  0  0  0  0
  -51.8046    2.2095  -17.7418 H   0  0  0  0  0  0  0  0  0  0  0  0
  -48.1766    1.4817  -17.1991 H   0  0  0  0  0  0  0  0  0  0  0  0
  -48.3430   -0.2416  -17.4347 H   0  0  0  0  0  0  0  0  0  0  0  0
  -49.0142    0.5142  -16.0095 H   0  0  0  0  0  0  0  0  0  0  0  0
  1  4  1  0  0  0  0
  1 21  1  0  0  0  0
  2  1  1  0  0  0  0
  2 12  1  0  0  0  0
  2  3  2  0  0  0  0
  4  5  2  0  0  0  0
  5  7  1  0  0  0  0
  5 22  1  0  0  0  0
  6  4  1  0  0  0  0
  6  9  1  0  0  0  0
  7 10  2  0  0  0  0
  7 23  1  0  0  0  0
  8  6  2  0  0  0  0
  8 24  1  0  0  0  0
 10  8  1  0  0  0  0
 10 11  1  0  0  0  0
 12 13  2  0  0  0  0
 13 15  1  0  0  0  0
 13 25  1  0  0  0  0
 14 12  1  0  0  0  0
 14 26  1  0  0  0  0
 15 17  2  0  0  0  0
 15 27  1  0  0  0  0
 16 14  2  0  0  0  0
 16 28  1  0  0  0  0
 17 16  1  0  0  0  0
 18 17  1  0  0  0  0
 18 19  1  0  0  0  0
 18 20  1  0  0  0  0
 18 29  1  0  0  0  0
 19 30  1  0  0  0  0
 19 31  1  0  0  0  0
 19 32  1  0  0  0  0
 20 33  1  0  0  0  0
 20 34  1  0  0  0  0
 20 35  1  0  0  0  0
M  END
>  <minimizedAffinity>
-8.21320

$$$$
