Untitled Document-1


 21 22  0  0  0  0  0  0  0  0999 V2000
  -50.5819    1.0081  -20.7995 C   0  0  0  0  0  0  0  0  0  0  0  0
  -49.7287    0.1411  -21.2147 O   0  0  0  0  0  0  0  0  0  0  0  0
  -51.4183    1.5421  -21.7878 N   0  0  0  0  0  0  0  0  0  0  0  0
  -52.0832    2.2038  -21.4890 H   0  0  0  0  0  0  0  0  0  0  0  0
  -50.5762    1.3239  -19.3818 C   0  0  0  0  0  0  0  0  0  0  0  0
  -51.4840    2.0881  -18.7038 C   0  0  0  0  0  0  0  0  0  0  0  0
  -51.4106    2.3464  -17.3391 C   0  0  0  0  0  0  0  0  0  0  0  0
  -50.3712    1.8068  -16.6282 C   0  0  0  0  0  0  0  0  0  0  0  0
  -49.4256    1.0293  -17.2527 C   0  0  0  0  0  0  0  0  0  0  0  0
  -49.5359    0.7988  -18.6043 C   0  0  0  0  0  0  0  0  0  0  0  0
  -47.8531    0.2275  -16.1125 I   0  0  0  0  0  0  0  0  0  0  0  0
  -52.5322    2.6404  -19.3843 O   0  0  0  0  0  0  0  0  0  0  0  0
  -52.6225    2.4935  -20.3053 H   0  0  0  0  0  0  0  0  0  0  0  0
  -51.4120    1.2313  -23.1838 C   0  0  0  0  0  0  0  0  0  0  0  0
  -50.5658    2.0150  -23.9754 C   0  0  0  0  0  0  0  0  0  0  0  0
  -50.4729    1.7866  -25.3222 C   0  0  0  0  0  0  0  0  0  0  0  0
  -51.1980    0.7925  -25.9364 C   0  0  0  0  0  0  0  0  0  0  0  0
  -52.0299    0.0235  -25.1506 C   0  0  0  0  0  0  0  0  0  0  0  0
  -52.1452    0.2347  -23.7665 C   0  0  0  0  0  0  0  0  0  0  0  0
  -51.1211    0.5389  -27.3128 O   0  0  0  0  0  0  0  0  0  0  0  0
  -51.1372    1.6634  -28.1694 C   0  0  0  0  0  0  0  0  0  0  0  0
  1  5  1  0  0  0
  1  2  2  0  0  0
  1  3  1  0  0  0
  5  6  2  0  0  0
  5 10  1  0  0  0
  6  7  1  0  0  0
  6 12  1  0  0  0
  7  8  2  0  0  0
  8  9  1  0  0  0
  9 10  2  0  0  0
  9 11  1  0  0  0
  3 14  1  0  0  0
  3  4  1  0  0  0
 14 15  2  0  0  0
 14 19  1  0  0  0
 15 16  1  0  0  0
 16 17  2  0  0  0
 17 18  1  0  0  0
 17 20  1  0  0  0
 18 19  2  0  0  0
 20 21  1  0  0  0
 12 13  1  0  0  0
M  END
> <minimizedAffinity>
-7.52983

$$$$
Untitled Document-1


 20 21  0  0  0  0  0  0  0  0999 V2000
  -51.5506    1.4432  -22.7752 C   0  0  0  0  0  0  0  0  0  0  0  0
  -52.7516    1.4577  -23.1605 O   0  0  0  0  0  0  0  0  0  0  0  0
  -50.4849    1.4930  -23.7411 N   0  0  0  0  0  0  0  0  0  0  0  0
  -49.5572    1.5105  -23.4121 H   0  0  0  0  0  0  0  0  0  0  0  0
  -51.2559    1.4001  -21.3230 C   0  0  0  0  0  0  0  0  0  0  0  0
  -52.1030    2.0427  -20.3938 C   0  0  0  0  0  0  0  0  0  0  0  0
  -51.7979    2.0031  -19.0251 C   0  0  0  0  0  0  0  0  0  0  0  0
  -50.6606    1.3311  -18.5747 C   0  0  0  0  0  0  0  0  0  0  0  0
  -49.8155    0.6978  -19.4877 C   0  0  0  0  0  0  0  0  0  0  0  0
  -50.1084    0.7334  -20.8542 C   0  0  0  0  0  0  0  0  0  0  0  0
  -48.0877   -0.3017  -18.8055 I   0  0  0  0  0  0  0  0  0  0  0  0
  -53.2517    2.7057  -20.8263 O   0  0  0  0  0  0  0  0  0  0  0  0
  -53.4600    2.7351  -21.7394 H   0  0  0  0  0  0  0  0  0  0  0  0
  -50.7049    1.5186  -25.1614 C   0  0  0  0  0  0  0  0  0  0  0  0
  -51.0367    0.3340  -25.8496 C   0  0  0  0  0  0  0  0  0  0  0  0
  -51.2794    0.3697  -27.2281 C   0  0  0  0  0  0  0  0  0  0  0  0
  -51.2072    1.5779  -27.9251 C   0  0  0  0  0  0  0  0  0  0  0  0
  -50.8962    2.7578  -27.2472 C   0  0  0  0  0  0  0  0  0  0  0  0
  -50.6511    2.7318  -25.8716 C   0  0  0  0  0  0  0  0  0  0  0  0
  -51.1242   -1.3550  -24.9477 Br  0  0  0  0  0  0  0  0  0  0  0  0
  1  5  1  0  0  0
  1  2  2  0  0  0
  1  3  1  0  0  0
  5  6  2  0  0  0
  5 10  1  0  0  0
  6  7  1  0  0  0
  6 12  1  0  0  0
  7  8  2  0  0  0
  8  9  1  0  0  0
  9 10  2  0  0  0
  9 11  1  0  0  0
  3 14  1  0  0  0
  3  4  1  0  0  0
 12 13  1  0  0  0
 14 15  2  0  0  0
 14 19  1  0  0  0
 15 16  1  0  0  0
 15 20  1  0  0  0
 16 17  2  0  0  0
 17 18  1  0  0  0
 18 19  2  0  0  0
M  END
> <minimizedAffinity>
-7.91448

$$$$
Untitled Document-1


 20 21  0  0  0  0  0  0  0  0999 V2000
  -50.7232    0.7630  -21.0642 C   0  0  0  0  0  0  0  0  0  0  0  0
  -50.4480   -0.4337  -21.3513 O   0  0  0  0  0  0  0  0  0  0  0  0
  -51.0797    1.6962  -22.1001 N   0  0  0  0  0  0  0  0  0  0  0  0
  -51.2749    2.6248  -21.8380 H   0  0  0  0  0  0  0  0  0  0  0  0
  -50.6791    1.1861  -19.6480 C   0  0  0  0  0  0  0  0  0  0  0  0
  -51.6120    2.1043  -19.1204 C   0  0  0  0  0  0  0  0  0  0  0  0
  -51.5436    2.4670  -17.7668 C   0  0  0  0  0  0  0  0  0  0  0  0
  -50.5440    1.9425  -16.9449 C   0  0  0  0  0  0  0  0  0  0  0  0
  -49.6015    1.0554  -17.4690 C   0  0  0  0  0  0  0  0  0  0  0  0
  -49.6651    0.6824  -18.8149 C   0  0  0  0  0  0  0  0  0  0  0  0
  -48.0848    0.2747  -16.2285 I   0  0  0  0  0  0  0  0  0  0  0  0
  -52.5840    2.6774  -19.9403 O   0  0  0  0  0  0  0  0  0  0  0  0
  -52.6341    2.4386  -20.8449 H   0  0  0  0  0  0  0  0  0  0  0  0
  -51.1686    1.3560  -23.4939 C   0  0  0  0  0  0  0  0  0  0  0  0
  -50.1412    1.7509  -24.3632 C   0  0  0  0  0  0  0  0  0  0  0  0
  -51.3180    0.7618  -26.2433 C   0  0  0  0  0  0  0  0  0  0  0  0
  -52.2955    0.6994  -24.0197 C   0  0  0  0  0  0  0  0  0  0  0  0
  -50.2132    1.4548  -25.7275 C   0  0  0  0  0  0  0  0  0  0  0  0
  -52.3680    0.4043  -25.3845 C   0  0  0  0  0  0  0  0  0  0  0  0
  -51.4151    0.4807  -27.7135 C   0  0  0  0  0  0  0  0  0  0  0  0
  1  5  1  0  0  0
  1  2  2  0  0  0
  1  3  1  0  0  0
  5  6  2  0  0  0
  5 10  1  0  0  0
  6  7  1  0  0  0
  6 12  1  0  0  0
  7  8  2  0  0  0
  8  9  1  0  0  0
  9 10  2  0  0  0
  9 11  1  0  0  0
  3 14  1  0  0  0
  3  4  1  0  0  0
 14 15  2  0  0  0
 14 17  1  0  0  0
 15 18  1  0  0  0
 16 18  2  0  0  0
 16 19  1  0  0  0
 16 20  1  0  0  0
 17 19  2  0  0  0
 12 13  1  0  0  0
M  END
> <minimizedAffinity>
-7.82224

$$$$
Untitled Document-1


 20 21  0  0  0  0  0  0  0  0999 V2000
  -51.7798    1.3701  -22.9744 C   0  0  0  0  0  0  0  0  0  0  0  0
  -52.9761    1.3129  -23.3698 O   0  0  0  0  0  0  0  0  0  0  0  0
  -50.7039    1.3320  -23.9296 N   0  0  0  0  0  0  0  0  0  0  0  0
  -49.7794    1.3380  -23.5912 H   0  0  0  0  0  0  0  0  0  0  0  0
  -51.5006    1.4509  -21.5206 C   0  0  0  0  0  0  0  0  0  0  0  0
  -52.3845    2.1267  -20.6512 C   0  0  0  0  0  0  0  0  0  0  0  0
  -52.1105    2.1788  -19.2766 C   0  0  0  0  0  0  0  0  0  0  0  0
  -50.9673    1.5659  -18.7611 C   0  0  0  0  0  0  0  0  0  0  0  0
  -50.0912    0.8915  -19.6134 C   0  0  0  0  0  0  0  0  0  0  0  0
  -50.3561    0.8310  -20.9848 C   0  0  0  0  0  0  0  0  0  0  0  0
  -48.3738   -0.0490  -18.8289 I   0  0  0  0  0  0  0  0  0  0  0  0
  -53.5236    2.7573  -21.1527 O   0  0  0  0  0  0  0  0  0  0  0  0
  -53.7112    2.7254  -22.0702 H   0  0  0  0  0  0  0  0  0  0  0  0
  -50.9084    1.2858  -25.3521 C   0  0  0  0  0  0  0  0  0  0  0  0
  -51.1779    0.0581  -25.9902 C   0  0  0  0  0  0  0  0  0  0  0  0
  -51.3476    0.0128  -27.3794 C   0  0  0  0  0  0  0  0  0  0  0  0
  -51.2378    1.1786  -28.1406 C   0  0  0  0  0  0  0  0  0  0  0  0
  -50.9530    2.3951  -27.5179 C   0  0  0  0  0  0  0  0  0  0  0  0
  -50.7832    2.4501  -26.1318 C   0  0  0  0  0  0  0  0  0  0  0  0
  -51.3442   -1.4310  -25.0686 Cl  0  0  0  0  0  0  0  0  0  0  0  0
  1  5  1  0  0  0
  1  2  2  0  0  0
  1  3  1  0  0  0
  5  6  2  0  0  0
  5 10  1  0  0  0
  6  7  1  0  0  0
  6 12  1  0  0  0
  7  8  2  0  0  0
  8  9  1  0  0  0
  9 10  2  0  0  0
  9 11  1  0  0  0
  3 14  1  0  0  0
  3  4  1  0  0  0
 12 13  1  0  0  0
 14 15  2  0  0  0
 14 19  1  0  0  0
 15 16  1  0  0  0
 15 20  1  0  0  0
 16 17  2  0  0  0
 17 18  1  0  0  0
 18 19  2  0  0  0
M  END
> <minimizedAffinity>
-8.03383

$$$$
Untitled Document-1


 21 22  0  0  0  0  0  0  0  0999 V2000
  -51.2089    1.2811  -21.3626 C   0  0  0  0  0  0  0  0  0  0  0  0
  -52.3967    1.4796  -21.7369 O   0  0  0  0  0  0  0  0  0  0  0  0
  -50.1859    0.9782  -22.3275 N   0  0  0  0  0  0  0  0  0  0  0  0
  -49.2747    0.8003  -22.0000 H   0  0  0  0  0  0  0  0  0  0  0  0
  -50.8899    1.3558  -19.9203 C   0  0  0  0  0  0  0  0  0  0  0  0
  -51.6392    2.1636  -19.0381 C   0  0  0  0  0  0  0  0  0  0  0  0
  -51.2934    2.2181  -17.6796 C   0  0  0  0  0  0  0  0  0  0  0  0
  -50.2270    1.4603  -17.1914 C   0  0  0  0  0  0  0  0  0  0  0  0
  -49.5000    0.6382  -18.0550 C   0  0  0  0  0  0  0  0  0  0  0  0
  -49.8322    0.5820  -19.4118 C   0  0  0  0  0  0  0  0  0  0  0  0
  -47.8975   -0.5148  -17.3125 I   0  0  0  0  0  0  0  0  0  0  0  0
  -52.7394    2.8860  -19.4998 O   0  0  0  0  0  0  0  0  0  0  0  0
  -52.9747    2.8531  -20.4061 H   0  0  0  0  0  0  0  0  0  0  0  0
  -50.4227    0.9212  -23.7442 C   0  0  0  0  0  0  0  0  0  0  0  0
  -50.8589   -0.2782  -24.3412 C   0  0  0  0  0  0  0  0  0  0  0  0
  -51.1163   -0.3236  -25.7167 C   0  0  0  0  0  0  0  0  0  0  0  0
  -50.9558    0.8215  -26.5023 C   0  0  0  0  0  0  0  0  0  0  0  0
  -50.5416    2.0187  -25.9128 C   0  0  0  0  0  0  0  0  0  0  0  0
  -50.2815    2.0715  -24.5409 C   0  0  0  0  0  0  0  0  0  0  0  0
  -51.2825    0.7579  -28.2245 Cl  0  0  0  0  0  0  0  0  0  0  0  0
  -51.0554   -1.7475  -23.3942 Cl  0  0  0  0  0  0  0  0  0  0  0  0
  1  5  1  0  0  0
  1  2  2  0  0  0
  1  3  1  0  0  0
  5  6  2  0  0  0
  5 10  1  0  0  0
  6  7  1  0  0  0
  6 12  1  0  0  0
  7  8  2  0  0  0
  8  9  1  0  0  0
  9 10  2  0  0  0
  9 11  1  0  0  0
  3 14  1  0  0  0
  3  4  1  0  0  0
 12 13  1  0  0  0
 14 15  2  0  0  0
 14 19  1  0  0  0
 15 16  1  0  0  0
 15 21  1  0  0  0
 16 17  2  0  0  0
 17 18  1  0  0  0
 17 20  1  0  0  0
 18 19  2  0  0  0
M  END
> <minimizedAffinity>
-7.89981

$$$$
Untitled Document-1


 21 22  0  0  0  0  0  0  0  0999 V2000
  -51.1549    0.9930  -21.0803 C   0  0  0  0  0  0  0  0  0  0  0  0
  -52.2734    1.4855  -21.3911 O   0  0  0  0  0  0  0  0  0  0  0  0
  -50.2441    0.5516  -22.1034 N   0  0  0  0  0  0  0  0  0  0  0  0
  -49.3865    0.1597  -21.8203 H   0  0  0  0  0  0  0  0  0  0  0  0
  -50.7946    0.8836  -19.6502 C   0  0  0  0  0  0  0  0  0  0  0  0
  -50.1445   -0.2604  -19.1375 C   0  0  0  0  0  0  0  0  0  0  0  0
  -49.8020   -0.3123  -17.7694 C   0  0  0  0  0  0  0  0  0  0  0  0
  -50.1297    0.7539  -16.9262 C   0  0  0  0  0  0  0  0  0  0  0  0
  -50.7995    1.8704  -17.4282 C   0  0  0  0  0  0  0  0  0  0  0  0
  -51.1343    1.9337  -18.7820 C   0  0  0  0  0  0  0  0  0  0  0  0
  -49.8758   -1.3373  -19.9863 O   0  0  0  0  0  0  0  0  0  0  0  0
  -51.2522    3.3153  -16.2639 Br  0  0  0  0  0  0  0  0  0  0  0  0
  -48.9016   -1.8213  -17.0033 Br  0  0  0  0  0  0  0  0  0  0  0  0
  -50.1088   -1.2888  -20.8926 H   0  0  0  0  0  0  0  0  0  0  0  0
  -50.5089    0.6476  -23.5130 C   0  0  0  0  0  0  0  0  0  0  0  0
  -50.9294   -0.4946  -24.2115 C   0  0  0  0  0  0  0  0  0  0  0  0
  -51.1708   -0.4348  -25.5874 C   0  0  0  0  0  0  0  0  0  0  0  0
  -50.9779    0.7636  -26.2814 C   0  0  0  0  0  0  0  0  0  0  0  0
  -50.5341    1.9005  -25.5987 C   0  0  0  0  0  0  0  0  0  0  0  0
  -50.2930    1.8435  -24.2224 C   0  0  0  0  0  0  0  0  0  0  0  0
  -51.2775    0.8369  -28.0081 Cl  0  0  0  0  0  0  0  0  0  0  0  0
  1  5  1  0  0  0
  1  2  2  0  0  0
  1  3  1  0  0  0
  5  6  2  0  0  0
  5 10  1  0  0  0
  6  7  1  0  0  0
  6 11  1  0  0  0
  7  8  2  0  0  0
  7 13  1  0  0  0
  8  9  1  0  0  0
  9 10  2  0  0  0
  9 12  1  0  0  0
  3 15  1  0  0  0
  3  4  1  0  0  0
 11 14  1  0  0  0
 15 16  2  0  0  0
 15 20  1  0  0  0
 16 17  1  0  0  0
 17 18  2  0  0  0
 18 19  1  0  0  0
 18 21  1  0  0  0
 19 20  2  0  0  0
M  END
> <minimizedAffinity>
-7.11032

$$$$
Untitled Document-1


 20 21  0  0  0  0  0  0  0  0999 V2000
  -50.7707    0.7973  -21.0389 C   0  0  0  0  0  0  0  0  0  0  0  0
  -50.4453   -0.3841  -21.3365 O   0  0  0  0  0  0  0  0  0  0  0  0
  -51.1949    1.7149  -22.0632 N   0  0  0  0  0  0  0  0  0  0  0  0
  -51.4548    2.6242  -21.7897 H   0  0  0  0  0  0  0  0  0  0  0  0
  -50.7028    1.2221  -19.6241 C   0  0  0  0  0  0  0  0  0  0  0  0
  -51.6265    2.1414  -19.0822 C   0  0  0  0  0  0  0  0  0  0  0  0
  -51.5164    2.5293  -17.7384 C   0  0  0  0  0  0  0  0  0  0  0  0
  -50.5129    1.9936  -16.9287 C   0  0  0  0  0  0  0  0  0  0  0  0
  -49.6138    1.0625  -17.4528 C   0  0  0  0  0  0  0  0  0  0  0  0
  -49.7109    0.6745  -18.7925 C   0  0  0  0  0  0  0  0  0  0  0  0
  -48.1069    0.2451  -16.2241 I   0  0  0  0  0  0  0  0  0  0  0  0
  -52.6663    2.6453  -19.8633 O   0  0  0  0  0  0  0  0  0  0  0  0
  -52.7442    2.3894  -20.7612 H   0  0  0  0  0  0  0  0  0  0  0  0
  -51.2625    1.3861  -23.4609 C   0  0  0  0  0  0  0  0  0  0  0  0
  -50.1476    1.6294  -24.2778 C   0  0  0  0  0  0  0  0  0  0  0  0
  -50.1782    1.2969  -25.6356 C   0  0  0  0  0  0  0  0  0  0  0  0
  -51.3176    0.7022  -26.1860 C   0  0  0  0  0  0  0  0  0  0  0  0
  -52.4239    0.4320  -25.3745 C   0  0  0  0  0  0  0  0  0  0  0  0
  -52.3962    0.7647  -24.0163 C   0  0  0  0  0  0  0  0  0  0  0  0
  -51.3537    0.2820  -27.8887 Cl  0  0  0  0  0  0  0  0  0  0  0  0
  1  5  1  0  0  0
  1  2  2  0  0  0
  1  3  1  0  0  0
  5  6  2  0  0  0
  5 10  1  0  0  0
  6  7  1  0  0  0
  6 12  1  0  0  0
  7  8  2  0  0  0
  8  9  1  0  0  0
  9 10  2  0  0  0
  9 11  1  0  0  0
  3 14  1  0  0  0
  3  4  1  0  0  0
 12 13  1  0  0  0
 14 15  2  0  0  0
 14 19  1  0  0  0
 15 16  1  0  0  0
 16 17  2  0  0  0
 17 18  1  0  0  0
 17 20  1  0  0  0
 18 19  2  0  0  0
M  END
> <minimizedAffinity>
-7.73699

$$$$
Untitled Document-1


 20 21  0  0  0  0  0  0  0  0999 V2000
  -50.5970    0.8603  -20.7956 C   0  0  0  0  0  0  0  0  0  0  0  0
  -50.1793   -0.2856  -21.1160 O   0  0  0  0  0  0  0  0  0  0  0  0
  -51.0865    1.7642  -21.8029 N   0  0  0  0  0  0  0  0  0  0  0  0
  -51.3906    2.6552  -21.5153 H   0  0  0  0  0  0  0  0  0  0  0  0
  -50.5805    1.2539  -19.3703 C   0  0  0  0  0  0  0  0  0  0  0  0
  -51.5471    2.1308  -18.8333 C   0  0  0  0  0  0  0  0  0  0  0  0
  -51.5036    2.4662  -17.4718 C   0  0  0  0  0  0  0  0  0  0  0  0
  -50.4963    1.9558  -16.6506 C   0  0  0  0  0  0  0  0  0  0  0  0
  -49.5210    1.1101  -17.1834 C   0  0  0  0  0  0  0  0  0  0  0  0
  -49.5595    0.7645  -18.5374 C   0  0  0  0  0  0  0  0  0  0  0  0
  -47.9929    0.3508  -15.9436 I   0  0  0  0  0  0  0  0  0  0  0  0
  -52.5285    2.6907  -19.6512 O   0  0  0  0  0  0  0  0  0  0  0  0
  -52.5618    2.4700  -20.5613 H   0  0  0  0  0  0  0  0  0  0  0  0
  -51.1587    1.4465  -23.2030 C   0  0  0  0  0  0  0  0  0  0  0  0
  -52.1955    0.6507  -23.7242 C   0  0  0  0  0  0  0  0  0  0  0  0
  -52.2555    0.3797  -25.0949 C   0  0  0  0  0  0  0  0  0  0  0  0
  -51.2923    0.9106  -25.9583 C   0  0  0  0  0  0  0  0  0  0  0  0
  -50.2735    1.7225  -25.4509 C   0  0  0  0  0  0  0  0  0  0  0  0
  -50.2118    1.9960  -24.0811 C   0  0  0  0  0  0  0  0  0  0  0  0
  -51.3780    0.5410  -27.8300 Br  0  0  0  0  0  0  0  0  0  0  0  0
  1  5  1  0  0  0
  1  2  2  0  0  0
  1  3  1  0  0  0
  5  6  2  0  0  0
  5 10  1  0  0  0
  6  7  1  0  0  0
  6 12  1  0  0  0
  7  8  2  0  0  0
  8  9  1  0  0  0
  9 10  2  0  0  0
  9 11  1  0  0  0
  3 14  1  0  0  0
  3  4  1  0  0  0
 12 13  1  0  0  0
 14 15  2  0  0  0
 14 19  1  0  0  0
 15 16  1  0  0  0
 16 17  2  0  0  0
 17 18  1  0  0  0
 17 20  1  0  0  0
 18 19  2  0  0  0
M  END
> <minimizedAffinity>
-7.46322

$$$$
Untitled Document-1


 19 20  0  0  0  0  0  0  0  0999 V2000
  -51.3241    1.1900  -22.1312 C   0  0  0  0  0  0  0  0  0  0  0  0
  -52.5109    1.4763  -22.4494 O   0  0  0  0  0  0  0  0  0  0  0  0
  -50.3637    0.8871  -23.1561 N   0  0  0  0  0  0  0  0  0  0  0  0
  -49.4069    0.9649  -22.9375 H   0  0  0  0  0  0  0  0  0  0  0  0
  -50.9227    1.2388  -20.7056 C   0  0  0  0  0  0  0  0  0  0  0  0
  -51.6744    1.9575  -19.7493 C   0  0  0  0  0  0  0  0  0  0  0  0
  -51.2690    1.9663  -18.4059 C   0  0  0  0  0  0  0  0  0  0  0  0
  -50.1160    1.2851  -18.0116 C   0  0  0  0  0  0  0  0  0  0  0  0
  -49.3569    0.5931  -18.9556 C   0  0  0  0  0  0  0  0  0  0  0  0
  -49.7536    0.5719  -20.2951 C   0  0  0  0  0  0  0  0  0  0  0  0
  -52.8038    2.6814  -20.1320 O   0  0  0  0  0  0  0  0  0  0  0  0
  -53.0800    2.6798  -21.0273 H   0  0  0  0  0  0  0  0  0  0  0  0
  -50.7293    0.4759  -24.4859 C   0  0  0  0  0  0  0  0  0  0  0  0
  -50.7239    1.4041  -25.5486 C   0  0  0  0  0  0  0  0  0  0  0  0
  -51.0550    0.9878  -26.8441 C   0  0  0  0  0  0  0  0  0  0  0  0
  -51.3808   -0.3469  -27.0942 C   0  0  0  0  0  0  0  0  0  0  0  0
  -51.3740   -1.2744  -26.0514 C   0  0  0  0  0  0  0  0  0  0  0  0
  -51.0462   -0.8690  -24.7551 C   0  0  0  0  0  0  0  0  0  0  0  0
  -50.3431    3.1012  -25.2841 Cl  0  0  0  0  0  0  0  0  0  0  0  0
  1  5  1  0  0  0
  1  2  2  0  0  0
  1  3  1  0  0  0
  5  6  2  0  0  0
  5 10  1  0  0  0
  6  7  1  0  0  0
  6 11  1  0  0  0
  7  8  2  0  0  0
  8  9  1  0  0  0
  9 10  2  0  0  0
  3 13  1  0  0  0
  3  4  1  0  0  0
 11 12  1  0  0  0
 13 14  2  0  0  0
 13 18  1  0  0  0
 14 15  1  0  0  0
 14 19  1  0  0  0
 15 16  2  0  0  0
 16 17  1  0  0  0
 17 18  2  0  0  0
M  END
> <minimizedAffinity>
-7.57367

$$$$
Untitled Document-1


 19 20  0  0  0  0  0  0  0  0999 V2000
  -51.5775    1.4472  -22.8064 C   0  0  0  0  0  0  0  0  0  0  0  0
  -52.7874    1.5017  -23.1586 O   0  0  0  0  0  0  0  0  0  0  0  0
  -50.5327    1.4911  -23.7941 N   0  0  0  0  0  0  0  0  0  0  0  0
  -49.5981    1.4734  -23.4852 H   0  0  0  0  0  0  0  0  0  0  0  0
  -51.2538    1.3478  -21.3666 C   0  0  0  0  0  0  0  0  0  0  0  0
  -52.0685    1.9472  -20.3817 C   0  0  0  0  0  0  0  0  0  0  0  0
  -51.7338    1.8154  -19.0254 C   0  0  0  0  0  0  0  0  0  0  0  0
  -50.5872    1.1141  -18.6464 C   0  0  0  0  0  0  0  0  0  0  0  0
  -49.7640    0.5437  -19.6183 C   0  0  0  0  0  0  0  0  0  0  0  0
  -50.0914    0.6629  -20.9714 C   0  0  0  0  0  0  0  0  0  0  0  0
  -53.1881    2.6949  -20.7467 O   0  0  0  0  0  0  0  0  0  0  0  0
  -53.4160    2.7861  -21.6510 H   0  0  0  0  0  0  0  0  0  0  0  0
  -50.7807    1.5596  -25.2080 C   0  0  0  0  0  0  0  0  0  0  0  0
  -51.0642    0.3864  -25.9357 C   0  0  0  0  0  0  0  0  0  0  0  0
  -51.2758    0.4539  -27.3182 C   0  0  0  0  0  0  0  0  0  0  0  0
  -51.1943    1.6787  -27.9843 C   0  0  0  0  0  0  0  0  0  0  0  0
  -50.8963    2.8423  -27.2728 C   0  0  0  0  0  0  0  0  0  0  0  0
  -50.6849    2.7849  -25.8927 C   0  0  0  0  0  0  0  0  0  0  0  0
  -51.2119   -1.3161  -25.0681 Br  0  0  0  0  0  0  0  0  0  0  0  0
  1  5  1  0  0  0
  1  2  2  0  0  0
  1  3  1  0  0  0
  5  6  2  0  0  0
  5 10  1  0  0  0
  6  7  1  0  0  0
  6 11  1  0  0  0
  7  8  2  0  0  0
  8  9  1  0  0  0
  9 10  2  0  0  0
  3 13  1  0  0  0
  3  4  1  0  0  0
 11 12  1  0  0  0
 13 14  2  0  0  0
 13 18  1  0  0  0
 14 15  1  0  0  0
 14 19  1  0  0  0
 15 16  2  0  0  0
 16 17  1  0  0  0
 17 18  2  0  0  0
M  END
> <minimizedAffinity>
-7.57582

$$$$
Untitled Document-1


 20 21  0  0  0  0  0  0  0  0999 V2000
  -51.4527    1.4687  -22.6648 C   0  0  0  0  0  0  0  0  0  0  0  0
  -52.6733    1.5079  -22.9798 O   0  0  0  0  0  0  0  0  0  0  0  0
  -50.4436    1.3937  -23.6862 N   0  0  0  0  0  0  0  0  0  0  0  0
  -49.5086    1.2593  -23.4091 H   0  0  0  0  0  0  0  0  0  0  0  0
  -51.0728    1.4333  -21.2368 C   0  0  0  0  0  0  0  0  0  0  0  0
  -51.8843    2.0140  -20.2328 C   0  0  0  0  0  0  0  0  0  0  0  0
  -51.5155    1.8955  -18.8872 C   0  0  0  0  0  0  0  0  0  0  0  0
  -50.3317    1.2391  -18.5233 C   0  0  0  0  0  0  0  0  0  0  0  0
  -49.5291    0.6667  -19.5179 C   0  0  0  0  0  0  0  0  0  0  0  0
  -49.8937    0.7671  -20.8620 C   0  0  0  0  0  0  0  0  0  0  0  0
  -49.9633    1.0912  -17.0766 C   0  0  0  0  0  0  0  0  0  0  0  0
  -53.0429    2.7333  -20.5347 O   0  0  0  0  0  0  0  0  0  0  0  0
  -53.3154    2.8300  -21.4259 H   0  0  0  0  0  0  0  0  0  0  0  0
  -50.7284    1.5047  -25.0911 C   0  0  0  0  0  0  0  0  0  0  0  0
  -51.0695    0.3600  -25.8401 C   0  0  0  0  0  0  0  0  0  0  0  0
  -51.3171    0.4706  -27.2138 C   0  0  0  0  0  0  0  0  0  0  0  0
  -51.2158    1.7092  -27.8509 C   0  0  0  0  0  0  0  0  0  0  0  0
  -50.8627    2.8442  -27.1189 C   0  0  0  0  0  0  0  0  0  0  0  0
  -50.6149    2.7441  -25.7473 C   0  0  0  0  0  0  0  0  0  0  0  0
  -51.2501   -1.3602  -25.0143 Br  0  0  0  0  0  0  0  0  0  0  0  0
  1  5  1  0  0  0
  1  2  2  0  0  0
  1  3  1  0  0  0
  5  6  2  0  0  0
  5 10  1  0  0  0
  6  7  1  0  0  0
  6 12  1  0  0  0
  7  8  2  0  0  0
  8  9  1  0  0  0
  8 11  1  0  0  0
  9 10  2  0  0  0
  3 14  1  0  0  0
  3  4  1  0  0  0
 12 13  1  0  0  0
 14 15  2  0  0  0
 14 19  1  0  0  0
 15 16  1  0  0  0
 15 20  1  0  0  0
 16 17  2  0  0  0
 17 18  1  0  0  0
 18 19  2  0  0  0
M  END
> <minimizedAffinity>
-8.03260

$$$$



 22 23  0  0  0  0  0  0  0  0999 V2000
  -51.1261    0.8631  -20.6696 C   0  0  0  0  0  0  0  0  0  0  0  0
  -52.3586    0.9975  -20.8999 O   0  0  0  0  0  0  0  0  0  0  0  0
  -50.2169    0.5407  -21.7375 N   0  0  0  0  0  0  0  0  0  0  0  0
  -49.2602    0.4580  -21.5203 H   0  0  0  0  0  0  0  0  0  0  0  0
  -49.6395    1.3157  -16.6758 C   0  0  0  0  0  0  0  0  0  0  0  0
  -50.6803    2.1420  -17.1112 C   0  0  0  0  0  0  0  0  0  0  0  0
  -51.1949    1.9987  -18.4175 C   0  0  0  0  0  0  0  0  0  0  0  0
  -50.6346    1.0360  -19.2856 C   0  0  0  0  0  0  0  0  0  0  0  0
  -49.6050    0.2017  -18.8213 C   0  0  0  0  0  0  0  0  0  0  0  0
  -49.1076    0.3443  -17.5247 C   0  0  0  0  0  0  0  0  0  0  0  0
  -52.2706    2.7758  -18.8546 O   0  0  0  0  0  0  0  0  0  0  0  0
  -47.6941   -0.7862  -16.9143 Br  0  0  0  0  0  0  0  0  0  0  0  0
  -51.3741    3.4383  -15.8816 Br  0  0  0  0  0  0  0  0  0  0  0  0
  -52.6479    3.4166  -18.2845 H   0  0  0  0  0  0  0  0  0  0  0  0
  -50.6189    0.3318  -23.1017 C   0  0  0  0  0  0  0  0  0  0  0  0
  -51.1170   -0.9076  -23.5396 C   0  0  0  0  0  0  0  0  0  0  0  0
  -51.4765   -1.0923  -24.8783 C   0  0  0  0  0  0  0  0  0  0  0  0
  -51.3288   -0.0429  -25.8048 C   0  0  0  0  0  0  0  0  0  0  0  0
  -50.8103    1.1820  -25.3702 C   0  0  0  0  0  0  0  0  0  0  0  0
  -50.4496    1.3661  -24.0325 C   0  0  0  0  0  0  0  0  0  0  0  0
  -51.6774   -0.1775  -27.1569 O   0  0  0  0  0  0  0  0  0  0  0  0
  -51.2778    0.7246  -28.1836 C   0  0  0  0  0  0  0  0  0  0  0  0
  5  6  1  0  0  0
  6  7  2  0  0  0
  6 13  1  0  0  0
  7 11  1  0  0  0
  7  8  1  0  0  0
  8  1  1  0  0  0
  8  9  2  0  0  0
  9 10  1  0  0  0
 10  5  2  0  0  0
 10 12  1  0  0  0
 11 14  1  0  0  0
  1  3  1  0  0  0
  1  2  2  0  0  0
  3 15  1  0  0  0
  3  4  1  0  0  0
 15 16  2  0  0  0
 16 17  1  0  0  0
 17 18  2  0  0  0
 18 19  1  0  0  0
 18 21  1  0  0  0
 19 20  2  0  0  0
 20 15  1  0  0  0
 21 22  1  0  0  0
M  END
> <minimizedAffinity>
-7.13487

$$$$
Untitled Document-1


 19 20  0  0  0  0  0  0  0  0999 V2000
  -51.5707    1.3575  -22.6401 C   0  0  0  0  0  0  0  0  0  0  0  0
  -52.7804    1.4663  -22.9800 O   0  0  0  0  0  0  0  0  0  0  0  0
  -50.5457    1.2617  -23.6466 N   0  0  0  0  0  0  0  0  0  0  0  0
  -49.6060    1.2612  -23.3532 H   0  0  0  0  0  0  0  0  0  0  0  0
  -51.2225    1.3567  -21.1989 C   0  0  0  0  0  0  0  0  0  0  0  0
  -52.0122    2.0640  -20.2655 C   0  0  0  0  0  0  0  0  0  0  0  0
  -51.6587    2.0649  -18.9079 C   0  0  0  0  0  0  0  0  0  0  0  0
  -50.5292    1.3698  -18.4725 C   0  0  0  0  0  0  0  0  0  0  0  0
  -49.7418    0.6734  -19.3898 C   0  0  0  0  0  0  0  0  0  0  0  0
  -50.0824    0.6672  -20.7449 C   0  0  0  0  0  0  0  0  0  0  0  0
  -53.1524    2.7513  -20.6828 O   0  0  0  0  0  0  0  0  0  0  0  0
  -53.3928    2.7537  -21.5885 H   0  0  0  0  0  0  0  0  0  0  0  0
  -50.8153    1.1666  -25.0559 C   0  0  0  0  0  0  0  0  0  0  0  0
  -50.7213    2.3158  -25.8602 C   0  0  0  0  0  0  0  0  0  0  0  0
  -50.9558    2.2346  -27.2369 C   0  0  0  0  0  0  0  0  0  0  0  0
  -51.2699    1.0065  -27.8238 C   0  0  0  0  0  0  0  0  0  0  0  0
  -51.3426   -0.1453  -27.0370 C   0  0  0  0  0  0  0  0  0  0  0  0
  -51.1103   -0.0699  -25.6602 C   0  0  0  0  0  0  0  0  0  0  0  0
  -50.4192    3.5172  -25.3065 F   0  0  0  0  0  0  0  0  0  0  0  0
  1  5  1  0  0  0
  1  2  2  0  0  0
  1  3  1  0  0  0
  5  6  2  0  0  0
  5 10  1  0  0  0
  6  7  1  0  0  0
  6 11  1  0  0  0
  7  8  2  0  0  0
  8  9  1  0  0  0
  9 10  2  0  0  0
  3 13  1  0  0  0
  3  4  1  0  0  0
 11 12  1  0  0  0
 13 14  2  0  0  0
 13 18  1  0  0  0
 14 15  1  0  0  0
 14 19  1  0  0  0
 15 16  2  0  0  0
 16 17  1  0  0  0
 17 18  2  0  0  0
M  END
> <minimizedAffinity>
-7.71336

$$$$
478805


 19 20  0  0  0  0  0  0  0  0999 V2000
  -52.2650    1.2437  -21.4815 O   0  0  0  0  0  0  0  0  0  0  0  0
  -50.0928    0.7785  -22.2209 N   0  0  0  0  0  0  0  0  0  0  0  0
  -51.0489    1.0832  -21.1884 C   0  0  0  0  0  0  0  0  0  0  0  0
  -49.1705    0.5665  -21.9496 H   0  0  0  0  0  0  0  0  0  0  0  0
  -52.5772    2.5493  -19.2423 O   0  0  0  0  0  0  0  0  0  0  0  0
  -50.6288    1.1855  -19.7701 C   0  0  0  0  0  0  0  0  0  0  0  0
  -51.4104    1.9011  -18.8365 C   0  0  0  0  0  0  0  0  0  0  0  0
  -49.4530    0.5484  -19.3304 C   0  0  0  0  0  0  0  0  0  0  0  0
  -51.0057    1.9747  -17.4950 C   0  0  0  0  0  0  0  0  0  0  0  0
  -49.0589    0.6309  -17.9924 C   0  0  0  0  0  0  0  0  0  0  0  0
  -49.8330    1.3438  -17.0766 C   0  0  0  0  0  0  0  0  0  0  0  0
  -52.8518    2.5033  -20.1370 H   0  0  0  0  0  0  0  0  0  0  0  0
  -50.4042    0.7653  -23.6245 C   0  0  0  0  0  0  0  0  0  0  0  0
  -50.9461    0.6734  -26.3875 C   0  0  0  0  0  0  0  0  0  0  0  0
  -50.7023   -0.4540  -24.2503 C   0  0  0  0  0  0  0  0  0  0  0  0
  -50.3585    1.9387  -24.3983 C   0  0  0  0  0  0  0  0  0  0  0  0
  -50.9858   -0.4988  -25.6185 C   0  0  0  0  0  0  0  0  0  0  0  0
  -50.6410    1.8937  -25.7670 C   0  0  0  0  0  0  0  0  0  0  0  0
  -51.2871    0.6319  -27.8477 C   0  0  0  0  0  0  0  0  0  0  0  0
  5  7  1  0  0  0
  5 12  1  0  0  0
  1  3  2  0  0  0
  2 13  1  0  0  0
  2  3  1  0  0  0
  2  4  1  0  0  0
 13 15  2  0  0  0
 13 16  1  0  0  0
  6  3  1  0  0  0
  6  7  2  0  0  0
  6  8  1  0  0  0
 14 17  2  0  0  0
 14 18  1  0  0  0
 14 19  1  0  0  0
 15 17  1  0  0  0
 16 18  2  0  0  0
  7  9  1  0  0  0
  8 10  2  0  0  0
  9 11  2  0  0  0
 10 11  1  0  0  0
M  END
> <minimizedAffinity>
-7.60522

$$$$
Untitled Document-1


 21 22  0  0  0  0  0  0  0  0999 V2000
  -51.3307    0.8975  -20.1222 C   0  0  0  0  0  0  0  0  0  0  0  0
  -52.5411    1.0988  -20.4130 O   0  0  0  0  0  0  0  0  0  0  0  0
  -50.3908    0.5147  -21.1425 N   0  0  0  0  0  0  0  0  0  0  0  0
  -49.4577    0.3527  -20.8734 H   0  0  0  0  0  0  0  0  0  0  0  0
  -50.8949    1.0676  -18.7194 C   0  0  0  0  0  0  0  0  0  0  0  0
  -50.1549    0.0686  -18.0492 C   0  0  0  0  0  0  0  0  0  0  0  0
  -49.7431    0.2829  -16.7166 C   0  0  0  0  0  0  0  0  0  0  0  0
  -50.0905    1.4677  -16.0599 C   0  0  0  0  0  0  0  0  0  0  0  0
  -50.8478    2.4407  -16.7134 C   0  0  0  0  0  0  0  0  0  0  0  0
  -51.2518    2.2404  -18.0346 C   0  0  0  0  0  0  0  0  0  0  0  0
  -49.8662   -1.1305  -18.7059 O   0  0  0  0  0  0  0  0  0  0  0  0
  -51.3260    4.0497  -15.8018 Br  0  0  0  0  0  0  0  0  0  0  0  0
  -48.7200   -1.0161  -15.7471 Br  0  0  0  0  0  0  0  0  0  0  0  0
  -50.1459   -1.2591  -19.5909 H   0  0  0  0  0  0  0  0  0  0  0  0
  -50.7297    0.3542  -22.5301 C   0  0  0  0  0  0  0  0  0  0  0  0
  -51.0239   -0.9273  -23.0208 C   0  0  0  0  0  0  0  0  0  0  0  0
  -51.3334   -1.1149  -24.3714 C   0  0  0  0  0  0  0  0  0  0  0  0
  -51.3351   -0.0256  -25.2478 C   0  0  0  0  0  0  0  0  0  0  0  0
  -51.0180    1.2509  -24.7736 C   0  0  0  0  0  0  0  0  0  0  0  0
  -50.7092    1.4416  -23.4230 C   0  0  0  0  0  0  0  0  0  0  0  0
  -51.7541   -0.2836  -27.0931 Br  0  0  0  0  0  0  0  0  0  0  0  0
  1  5  1  0  0  0
  1  2  2  0  0  0
  1  3  1  0  0  0
  5  6  2  0  0  0
  5 10  1  0  0  0
  6  7  1  0  0  0
  6 11  1  0  0  0
  7  8  2  0  0  0
  7 13  1  0  0  0
  8  9  1  0  0  0
  9 10  2  0  0  0
  9 12  1  0  0  0
  3 15  1  0  0  0
  3  4  1  0  0  0
 11 14  1  0  0  0
 15 16  2  0  0  0
 15 20  1  0  0  0
 16 17  1  0  0  0
 17 18  2  0  0  0
 18 19  1  0  0  0
 18 21  1  0  0  0
 19 20  2  0  0  0
M  END
> <minimizedAffinity>
-6.98432

$$$$
Untitled Document-1


 21 22  0  0  0  0  0  0  0  0999 V2000
  -50.5446    0.6980  -20.4467 C   0  0  0  0  0  0  0  0  0  0  0  0
  -50.1966   -0.4652  -20.7875 O   0  0  0  0  0  0  0  0  0  0  0  0
  -51.0836    1.6106  -21.4204 N   0  0  0  0  0  0  0  0  0  0  0  0
  -51.3553    2.5058  -21.1137 H   0  0  0  0  0  0  0  0  0  0  0  0
  -50.3832    1.1072  -19.0349 C   0  0  0  0  0  0  0  0  0  0  0  0
  -51.3093    1.9639  -18.4016 C   0  0  0  0  0  0  0  0  0  0  0  0
  -51.1096    2.3394  -17.0644 C   0  0  0  0  0  0  0  0  0  0  0  0
  -50.0129    1.8518  -16.3506 C   0  0  0  0  0  0  0  0  0  0  0  0
  -49.1105    0.9822  -16.9647 C   0  0  0  0  0  0  0  0  0  0  0  0
  -49.2958    0.6071  -18.2977 C   0  0  0  0  0  0  0  0  0  0  0  0
  -52.4378    2.4171  -19.0848 O   0  0  0  0  0  0  0  0  0  0  0  0
  -52.5757    2.1693  -19.9779 H   0  0  0  0  0  0  0  0  0  0  0  0
  -51.2501    1.2957  -22.8131 C   0  0  0  0  0  0  0  0  0  0  0  0
  -50.2401    1.5635  -23.7524 C   0  0  0  0  0  0  0  0  0  0  0  0
  -50.4373    1.2714  -25.1050 C   0  0  0  0  0  0  0  0  0  0  0  0
  -51.6536    0.7185  -25.5473 C   0  0  0  0  0  0  0  0  0  0  0  0
  -52.6703    0.4771  -24.6078 C   0  0  0  0  0  0  0  0  0  0  0  0
  -52.4717    0.7711  -23.2560 C   0  0  0  0  0  0  0  0  0  0  0  0
  -51.8822    0.3978  -27.0126 C   0  0  0  0  0  0  0  0  0  0  0  0
  -51.5664   -1.0724  -27.3130 C   0  0  0  0  0  0  0  0  0  0  0  0
  -51.0689    1.3325  -27.9156 C   0  0  0  0  0  0  0  0  0  0  0  0
  1  5  1  0  0  0
  1  2  2  0  0  0
  1  3  1  0  0  0
  5  6  2  0  0  0
  5 10  1  0  0  0
  6  7  1  0  0  0
  6 11  1  0  0  0
  7  8  2  0  0  0
  8  9  1  0  0  0
  9 10  2  0  0  0
  3 13  1  0  0  0
  3  4  1  0  0  0
 13 14  2  0  0  0
 13 18  1  0  0  0
 14 15  1  0  0  0
 15 16  2  0  0  0
 16 17  1  0  0  0
 16 19  1  0  0  0
 17 18  2  0  0  0
 19 20  1  0  0  0
 19 21  1  0  0  0
 11 12  1  0  0  0
M  END
> <minimizedAffinity>
-7.98687

$$$$
Untitled Document-1


 21 22  0  0  0  0  0  0  0  0999 V2000
  -51.0537    1.1783  -21.2439 C   0  0  0  0  0  0  0  0  0  0  0  0
  -52.2592    1.3878  -21.5499 O   0  0  0  0  0  0  0  0  0  0  0  0
  -50.0788    0.9249  -22.2707 N   0  0  0  0  0  0  0  0  0  0  0  0
  -49.1410    0.7946  -22.0008 H   0  0  0  0  0  0  0  0  0  0  0  0
  -50.6605    1.2068  -19.8183 C   0  0  0  0  0  0  0  0  0  0  0  0
  -51.4330    1.8846  -18.8521 C   0  0  0  0  0  0  0  0  0  0  0  0
  -51.0348    1.8742  -17.5069 C   0  0  0  0  0  0  0  0  0  0  0  0
  -49.8676    1.2040  -17.1138 C   0  0  0  0  0  0  0  0  0  0  0  0
  -49.0777    0.5718  -18.0829 C   0  0  0  0  0  0  0  0  0  0  0  0
  -49.4717    0.5717  -19.4230 C   0  0  0  0  0  0  0  0  0  0  0  0
  -49.4249    1.2347  -15.6808 C   0  0  0  0  0  0  0  0  0  0  0  0
  -52.5746    2.5926  -19.2282 O   0  0  0  0  0  0  0  0  0  0  0  0
  -52.8452    2.6030  -20.1252 H   0  0  0  0  0  0  0  0  0  0  0  0
  -50.4001    0.8514  -23.6699 C   0  0  0  0  0  0  0  0  0  0  0  0
  -50.7703   -0.3792  -24.2476 C   0  0  0  0  0  0  0  0  0  0  0  0
  -51.0550   -0.4538  -25.6166 C   0  0  0  0  0  0  0  0  0  0  0  0
  -50.9609    0.6866  -26.4194 C   0  0  0  0  0  0  0  0  0  0  0  0
  -50.5761    1.9060  -25.8560 C   0  0  0  0  0  0  0  0  0  0  0  0
  -50.2916    1.9887  -24.4904 C   0  0  0  0  0  0  0  0  0  0  0  0
  -51.3166    0.5851  -28.1341 Cl  0  0  0  0  0  0  0  0  0  0  0  0
  -50.9200   -1.8347  -23.2711 Cl  0  0  0  0  0  0  0  0  0  0  0  0
  1  5  1  0  0  0
  1  2  2  0  0  0
  1  3  1  0  0  0
  5  6  2  0  0  0
  5 10  1  0  0  0
  6  7  1  0  0  0
  6 12  1  0  0  0
  7  8  2  0  0  0
  8  9  1  0  0  0
  8 11  1  0  0  0
  9 10  2  0  0  0
  3 14  1  0  0  0
  3  4  1  0  0  0
 12 13  1  0  0  0
 14 15  2  0  0  0
 14 19  1  0  0  0
 15 16  1  0  0  0
 15 21  1  0  0  0
 16 17  2  0  0  0
 17 18  1  0  0  0
 17 20  1  0  0  0
 18 19  2  0  0  0
M  END
> <minimizedAffinity>
-8.12274

$$$$
Untitled Document-1


 20 21  0  0  0  0  0  0  0  0999 V2000
  -50.6200    0.7672  -21.1679 C   0  0  0  0  0  0  0  0  0  0  0  0
  -50.1880   -0.3544  -21.5493 O   0  0  0  0  0  0  0  0  0  0  0  0
  -51.1638    1.6993  -22.1200 N   0  0  0  0  0  0  0  0  0  0  0  0
  -51.5037    2.5593  -21.7819 H   0  0  0  0  0  0  0  0  0  0  0  0
  -50.5521    1.1079  -19.7305 C   0  0  0  0  0  0  0  0  0  0  0  0
  -51.5358    1.9078  -19.1127 C   0  0  0  0  0  0  0  0  0  0  0  0
  -51.4258    2.2216  -17.7496 C   0  0  0  0  0  0  0  0  0  0  0  0
  -50.3508    1.7375  -16.9909 C   0  0  0  0  0  0  0  0  0  0  0  0
  -49.4012    0.9043  -17.5966 C   0  0  0  0  0  0  0  0  0  0  0  0
  -49.5002    0.5936  -18.9548 C   0  0  0  0  0  0  0  0  0  0  0  0
  -50.2639    2.0407  -15.5243 C   0  0  0  0  0  0  0  0  0  0  0  0
  -52.6357    2.3642  -19.8393 O   0  0  0  0  0  0  0  0  0  0  0  0
  -52.7141    2.1575  -20.7498 H   0  0  0  0  0  0  0  0  0  0  0  0
  -51.2417    1.4526  -23.5340 C   0  0  0  0  0  0  0  0  0  0  0  0
  -50.2402    1.9596  -24.3746 C   0  0  0  0  0  0  0  0  0  0  0  0
  -51.3039    0.9343  -26.3022 C   0  0  0  0  0  0  0  0  0  0  0  0
  -52.2657    0.6637  -24.0874 C   0  0  0  0  0  0  0  0  0  0  0  0
  -50.2781    1.7156  -25.7506 C   0  0  0  0  0  0  0  0  0  0  0  0
  -52.3030    0.4185  -25.4635 C   0  0  0  0  0  0  0  0  0  0  0  0
  -51.3662    0.7035  -27.7830 C   0  0  0  0  0  0  0  0  0  0  0  0
  1  5  1  0  0  0
  1  2  2  0  0  0
  1  3  1  0  0  0
  5  6  2  0  0  0
  5 10  1  0  0  0
  6  7  1  0  0  0
  6 12  1  0  0  0
  7  8  2  0  0  0
  8  9  1  0  0  0
  8 11  1  0  0  0
  9 10  2  0  0  0
  3 14  1  0  0  0
  3  4  1  0  0  0
 14 15  2  0  0  0
 14 17  1  0  0  0
 15 18  1  0  0  0
 16 18  2  0  0  0
 16 19  1  0  0  0
 16 20  1  0  0  0
 17 19  2  0  0  0
 12 13  1  0  0  0
M  END
> <minimizedAffinity>
-7.91077

$$$$
Untitled Document-1


 20 21  0  0  0  0  0  0  0  0999 V2000
  -51.0317    1.0381  -20.8581 C   0  0  0  0  0  0  0  0  0  0  0  0
  -52.1613    1.4703  -21.2149 O   0  0  0  0  0  0  0  0  0  0  0  0
  -50.1603    0.4051  -21.8127 N   0  0  0  0  0  0  0  0  0  0  0  0
  -49.2917    0.0694  -21.4934 H   0  0  0  0  0  0  0  0  0  0  0  0
  -50.6184    1.1989  -19.4475 C   0  0  0  0  0  0  0  0  0  0  0  0
  -51.3759    1.9666  -18.5365 C   0  0  0  0  0  0  0  0  0  0  0  0
  -50.9554    2.0803  -17.2026 C   0  0  0  0  0  0  0  0  0  0  0  0
  -49.7800    1.4575  -16.7776 C   0  0  0  0  0  0  0  0  0  0  0  0
  -49.0134    0.7209  -17.6818 C   0  0  0  0  0  0  0  0  0  0  0  0
  -49.4263    0.5954  -19.0107 C   0  0  0  0  0  0  0  0  0  0  0  0
  -52.5235    2.6380  -18.9582 O   0  0  0  0  0  0  0  0  0  0  0  0
  -52.8085    2.5653  -19.8479 H   0  0  0  0  0  0  0  0  0  0  0  0
  -50.4798    0.2326  -23.2036 C   0  0  0  0  0  0  0  0  0  0  0  0
  -50.1455    1.2444  -24.1146 C   0  0  0  0  0  0  0  0  0  0  0  0
  -50.4655    1.1130  -25.4686 C   0  0  0  0  0  0  0  0  0  0  0  0
  -51.1403   -0.0214  -25.9331 C   0  0  0  0  0  0  0  0  0  0  0  0
  -51.5003   -1.0280  -25.0172 C   0  0  0  0  0  0  0  0  0  0  0  0
  -51.1789   -0.8972  -23.6626 C   0  0  0  0  0  0  0  0  0  0  0  0
  -51.4373   -0.1071  -27.3015 O   0  0  0  0  0  0  0  0  0  0  0  0
  -51.2081    0.9384  -28.2406 C   0  0  0  0  0  0  0  0  0  0  0  0
  1  5  1  0  0  0
  1  2  2  0  0  0
  1  3  1  0  0  0
  5  6  2  0  0  0
  5 10  1  0  0  0
  6  7  1  0  0  0
  6 11  1  0  0  0
  7  8  2  0  0  0
  8  9  1  0  0  0
  9 10  2  0  0  0
  3 13  1  0  0  0
  3  4  1  0  0  0
 13 14  2  0  0  0
 13 18  1  0  0  0
 14 15  1  0  0  0
 15 16  2  0  0  0
 16 17  1  0  0  0
 16 19  1  0  0  0
 17 18  2  0  0  0
 19 20  1  0  0  0
 11 12  1  0  0  0
M  END
> <minimizedAffinity>
-7.32511

$$$$
Untitled Document-1


 20 21  0  0  0  0  0  0  0  0999 V2000
  -51.3668    1.3064  -21.8814 C   0  0  0  0  0  0  0  0  0  0  0  0
  -52.5743    1.4292  -22.2241 O   0  0  0  0  0  0  0  0  0  0  0  0
  -50.3535    1.0804  -22.8791 N   0  0  0  0  0  0  0  0  0  0  0  0
  -49.4360    0.8961  -22.5733 H   0  0  0  0  0  0  0  0  0  0  0  0
  -51.0152    1.3709  -20.4425 C   0  0  0  0  0  0  0  0  0  0  0  0
  -51.7846    2.1438  -19.5471 C   0  0  0  0  0  0  0  0  0  0  0  0
  -51.4489    2.1817  -18.1857 C   0  0  0  0  0  0  0  0  0  0  0  0
  -50.3591    1.4467  -17.6997 C   0  0  0  0  0  0  0  0  0  0  0  0
  -49.5874    0.6905  -18.5909 C   0  0  0  0  0  0  0  0  0  0  0  0
  -49.9169    0.6451  -19.9475 C   0  0  0  0  0  0  0  0  0  0  0  0
  -49.9812    1.5239  -16.2499 C   0  0  0  0  0  0  0  0  0  0  0  0
  -52.8707    2.8868  -20.0112 O   0  0  0  0  0  0  0  0  0  0  0  0
  -53.0993    2.8651  -20.9196 H   0  0  0  0  0  0  0  0  0  0  0  0
  -50.6013    1.1079  -24.2951 C   0  0  0  0  0  0  0  0  0  0  0  0
  -50.9647   -0.0781  -24.9524 C   0  0  0  0  0  0  0  0  0  0  0  0
  -51.1875   -0.0831  -26.3328 C   0  0  0  0  0  0  0  0  0  0  0  0
  -51.0331    1.0932  -27.0713 C   0  0  0  0  0  0  0  0  0  0  0  0
  -50.6470    2.2737  -26.4307 C   0  0  0  0  0  0  0  0  0  0  0  0
  -50.4243    2.2826  -25.0499 C   0  0  0  0  0  0  0  0  0  0  0  0
  -51.2465    1.0864  -28.4102 F   0  0  0  0  0  0  0  0  0  0  0  0
  1  5  1  0  0  0
  1  2  2  0  0  0
  1  3  1  0  0  0
  5  6  2  0  0  0
  5 10  1  0  0  0
  6  7  1  0  0  0
  6 12  1  0  0  0
  7  8  2  0  0  0
  8  9  1  0  0  0
  8 11  1  0  0  0
  9 10  2  0  0  0
  3 14  1  0  0  0
  3  4  1  0  0  0
 12 13  1  0  0  0
 14 15  2  0  0  0
 14 19  1  0  0  0
 15 16  1  0  0  0
 16 17  2  0  0  0
 17 18  1  0  0  0
 17 20  1  0  0  0
 18 19  2  0  0  0
M  END
> <minimizedAffinity>
-7.91077

$$$$
Untitled Document-1


 19 20  0  0  0  0  0  0  0  0999 V2000
  -51.0237    1.1941  -21.2592 C   0  0  0  0  0  0  0  0  0  0  0  0
  -52.2231    1.4386  -21.5615 O   0  0  0  0  0  0  0  0  0  0  0  0
  -50.0615    0.8931  -22.2862 N   0  0  0  0  0  0  0  0  0  0  0  0
  -49.1376    0.6950  -22.0096 H   0  0  0  0  0  0  0  0  0  0  0  0
  -50.6245    1.2281  -19.8358 C   0  0  0  0  0  0  0  0  0  0  0  0
  -51.4096    1.8820  -18.8617 C   0  0  0  0  0  0  0  0  0  0  0  0
  -51.0013    1.8768  -17.5191 C   0  0  0  0  0  0  0  0  0  0  0  0
  -49.8114    1.2484  -17.1457 C   0  0  0  0  0  0  0  0  0  0  0  0
  -49.0183    0.6251  -18.1100 C   0  0  0  0  0  0  0  0  0  0  0  0
  -49.4184    0.6182  -19.4487 C   0  0  0  0  0  0  0  0  0  0  0  0
  -52.5731    2.5591  -19.2268 O   0  0  0  0  0  0  0  0  0  0  0  0
  -52.8500    2.5657  -20.1219 H   0  0  0  0  0  0  0  0  0  0  0  0
  -50.3657    0.8637  -23.6908 C   0  0  0  0  0  0  0  0  0  0  0  0
  -50.6390   -0.3667  -24.3081 C   0  0  0  0  0  0  0  0  0  0  0  0
  -50.9145   -0.4265  -25.6776 C   0  0  0  0  0  0  0  0  0  0  0  0
  -50.9028    0.7413  -26.4465 C   0  0  0  0  0  0  0  0  0  0  0  0
  -50.6060    1.9685  -25.8453 C   0  0  0  0  0  0  0  0  0  0  0  0
  -50.3313    2.0312  -24.4756 C   0  0  0  0  0  0  0  0  0  0  0  0
  -51.2449    0.6649  -28.1652 Cl  0  0  0  0  0  0  0  0  0  0  0  0
  1  5  1  0  0  0
  1  2  2  0  0  0
  1  3  1  0  0  0
  5  6  2  0  0  0
  5 10  1  0  0  0
  6  7  1  0  0  0
  6 11  1  0  0  0
  7  8  2  0  0  0
  8  9  1  0  0  0
  9 10  2  0  0  0
  3 13  1  0  0  0
  3  4  1  0  0  0
 11 12  1  0  0  0
 13 14  2  0  0  0
 13 18  1  0  0  0
 14 15  1  0  0  0
 15 16  2  0  0  0
 16 17  1  0  0  0
 16 19  1  0  0  0
 17 18  2  0  0  0
M  END
> <minimizedAffinity>
-7.43769

$$$$
Untitled Document-1


 20 21  0  0  0  0  0  0  0  0999 V2000
  -51.0475    1.1440  -21.2242 C   0  0  0  0  0  0  0  0  0  0  0  0
  -52.2600    1.3208  -21.5229 O   0  0  0  0  0  0  0  0  0  0  0  0
  -50.0964    0.7850  -22.2410 N   0  0  0  0  0  0  0  0  0  0  0  0
  -49.1831    0.5460  -21.9614 H   0  0  0  0  0  0  0  0  0  0  0  0
  -50.6271    1.2448  -19.8107 C   0  0  0  0  0  0  0  0  0  0  0  0
  -51.4102    1.9231  -18.8446 C   0  0  0  0  0  0  0  0  0  0  0  0
  -51.0027    1.9326  -17.5047 C   0  0  0  0  0  0  0  0  0  0  0  0
  -49.8199    1.2997  -17.1182 C   0  0  0  0  0  0  0  0  0  0  0  0
  -49.0347    0.6473  -18.0688 C   0  0  0  0  0  0  0  0  0  0  0  0
  -49.4347    0.6174  -19.4067 C   0  0  0  0  0  0  0  0  0  0  0  0
  -52.5751    2.6158  -19.1817 O   0  0  0  0  0  0  0  0  0  0  0  0
  -52.8727    2.6275  -20.0701 H   0  0  0  0  0  0  0  0  0  0  0  0
  -50.4080    0.7564  -23.6447 C   0  0  0  0  0  0  0  0  0  0  0  0
  -50.8150   -0.4458  -24.2576 C   0  0  0  0  0  0  0  0  0  0  0  0
  -51.0902   -0.4752  -25.6301 C   0  0  0  0  0  0  0  0  0  0  0  0
  -50.9512    0.6817  -26.4022 C   0  0  0  0  0  0  0  0  0  0  0  0
  -50.5314    1.8725  -25.8043 C   0  0  0  0  0  0  0  0  0  0  0  0
  -50.2559    1.9103  -24.4349 C   0  0  0  0  0  0  0  0  0  0  0  0
  -51.2955    0.6366  -28.1217 Cl  0  0  0  0  0  0  0  0  0  0  0  0
  -51.0243   -1.9214  -23.3228 Cl  0  0  0  0  0  0  0  0  0  0  0  0
  1  5  1  0  0  0
  1  2  2  0  0  0
  1  3  1  0  0  0
  5  6  2  0  0  0
  5 10  1  0  0  0
  6  7  1  0  0  0
  6 11  1  0  0  0
  7  8  2  0  0  0
  8  9  1  0  0  0
  9 10  2  0  0  0
  3 13  1  0  0  0
  3  4  1  0  0  0
 11 12  1  0  0  0
 13 14  2  0  0  0
 13 18  1  0  0  0
 14 15  1  0  0  0
 14 20  1  0  0  0
 15 16  2  0  0  0
 16 17  1  0  0  0
 16 19  1  0  0  0
 17 18  2  0  0  0
M  END
> <minimizedAffinity>
-7.88612

$$$$
Untitled Document-1


 18 19  0  0  0  0  0  0  0  0999 V2000
  -51.7994    1.3356  -23.0594 C   0  0  0  0  0  0  0  0  0  0  0  0
  -52.9849    1.1885  -23.4640 O   0  0  0  0  0  0  0  0  0  0  0  0
  -50.7218    1.4416  -24.0085 N   0  0  0  0  0  0  0  0  0  0  0  0
  -49.8223    1.6493  -23.6662 H   0  0  0  0  0  0  0  0  0  0  0  0
  -51.5398    1.4246  -21.6023 C   0  0  0  0  0  0  0  0  0  0  0  0
  -52.4255    2.1246  -20.7536 C   0  0  0  0  0  0  0  0  0  0  0  0
  -52.1563    2.2117  -19.3795 C   0  0  0  0  0  0  0  0  0  0  0  0
  -51.0163    1.6098  -18.8445 C   0  0  0  0  0  0  0  0  0  0  0  0
  -50.1344    0.9212  -19.6778 C   0  0  0  0  0  0  0  0  0  0  0  0
  -50.3905    0.8297  -21.0485 C   0  0  0  0  0  0  0  0  0  0  0  0
  -53.5770    2.7189  -21.2709 O   0  0  0  0  0  0  0  0  0  0  0  0
  -53.7612    2.6636  -22.1879 H   0  0  0  0  0  0  0  0  0  0  0  0
  -50.8805    1.2624  -25.4262 C   0  0  0  0  0  0  0  0  0  0  0  0
  -50.8251    2.3517  -26.3160 C   0  0  0  0  0  0  0  0  0  0  0  0
  -51.0096    2.1513  -27.6878 C   0  0  0  0  0  0  0  0  0  0  0  0
  -51.2645    0.8693  -28.1811 C   0  0  0  0  0  0  0  0  0  0  0  0
  -51.3453   -0.2137  -27.3022 C   0  0  0  0  0  0  0  0  0  0  0  0
  -51.1624   -0.0174  -25.9299 C   0  0  0  0  0  0  0  0  0  0  0  0
  1  5  1  0  0  0
  1  2  2  0  0  0
  1  3  1  0  0  0
  5  6  2  0  0  0
  5 10  1  0  0  0
  6  7  1  0  0  0
  6 11  1  0  0  0
  7  8  2  0  0  0
  8  9  1  0  0  0
  9 10  2  0  0  0
  3 13  1  0  0  0
  3  4  1  0  0  0
 13 14  2  0  0  0
 13 18  1  0  0  0
 14 15  1  0  0  0
 15 16  2  0  0  0
 16 17  1  0  0  0
 17 18  2  0  0  0
 11 12  1  0  0  0
M  END
> <minimizedAffinity>
-7.39327

$$$$
Untitled Document-1


 19 20  0  0  0  0  0  0  0  0999 V2000
  -51.3398    1.3329  -21.9037 C   0  0  0  0  0  0  0  0  0  0  0  0
  -52.5470    1.4650  -22.2434 O   0  0  0  0  0  0  0  0  0  0  0  0
  -50.3213    1.1324  -22.9006 N   0  0  0  0  0  0  0  0  0  0  0  0
  -49.3921    1.0205  -22.5952 H   0  0  0  0  0  0  0  0  0  0  0  0
  -50.9909    1.3935  -20.4680 C   0  0  0  0  0  0  0  0  0  0  0  0
  -51.7606    2.1398  -19.5496 C   0  0  0  0  0  0  0  0  0  0  0  0
  -51.4026    2.1576  -18.1929 C   0  0  0  0  0  0  0  0  0  0  0  0
  -50.2764    1.4602  -17.7509 C   0  0  0  0  0  0  0  0  0  0  0  0
  -49.4968    0.7442  -18.6603 C   0  0  0  0  0  0  0  0  0  0  0  0
  -49.8478    0.7140  -20.0123 C   0  0  0  0  0  0  0  0  0  0  0  0
  -52.8572    2.8843  -19.9840 O   0  0  0  0  0  0  0  0  0  0  0  0
  -53.1004    2.8759  -20.8888 H   0  0  0  0  0  0  0  0  0  0  0  0
  -50.5767    1.0856  -24.3144 C   0  0  0  0  0  0  0  0  0  0  0  0
  -50.4754    2.2359  -25.1190 C   0  0  0  0  0  0  0  0  0  0  0  0
  -50.7037    2.1549  -26.4965 C   0  0  0  0  0  0  0  0  0  0  0  0
  -51.0197    0.9269  -27.0842 C   0  0  0  0  0  0  0  0  0  0  0  0
  -51.0978   -0.2243  -26.2959 C   0  0  0  0  0  0  0  0  0  0  0  0
  -50.8692   -0.1472  -24.9185 C   0  0  0  0  0  0  0  0  0  0  0  0
  -51.2385    0.8504  -28.4200 F   0  0  0  0  0  0  0  0  0  0  0  0
  1  5  1  0  0  0
  1  2  2  0  0  0
  1  3  1  0  0  0
  5  6  2  0  0  0
  5 10  1  0  0  0
  6  7  1  0  0  0
  6 11  1  0  0  0
  7  8  2  0  0  0
  8  9  1  0  0  0
  9 10  2  0  0  0
  3 13  1  0  0  0
  3  4  1  0  0  0
 11 12  1  0  0  0
 13 14  2  0  0  0
 13 18  1  0  0  0
 14 15  1  0  0  0
 15 16  2  0  0  0
 16 17  1  0  0  0
 16 19  1  0  0  0
 17 18  2  0  0  0
M  END
> <minimizedAffinity>
-7.43475

$$$$
Untitled Document-1


 21 22  0  0  0  0  0  0  0  0999 V2000
  -51.2306    0.9612  -21.8176 C   0  0  0  0  0  0  0  0  0  0  0  0
  -52.3413    1.5238  -22.0171 O   0  0  0  0  0  0  0  0  0  0  0  0
  -50.3687    0.6387  -22.9241 N   0  0  0  0  0  0  0  0  0  0  0  0
  -49.5161    0.1869  -22.7288 H   0  0  0  0  0  0  0  0  0  0  0  0
  -50.8281    0.6460  -20.4301 C   0  0  0  0  0  0  0  0  0  0  0  0
  -51.0497    1.5546  -19.3719 C   0  0  0  0  0  0  0  0  0  0  0  0
  -50.6668    1.2027  -18.0599 C   0  0  0  0  0  0  0  0  0  0  0  0
  -50.0487   -0.0284  -17.8190 C   0  0  0  0  0  0  0  0  0  0  0  0
  -49.8026   -0.9122  -18.8705 C   0  0  0  0  0  0  0  0  0  0  0  0
  -50.1860   -0.5755  -20.1699 C   0  0  0  0  0  0  0  0  0  0  0  0
  -51.6185    2.8015  -19.6437 O   0  0  0  0  0  0  0  0  0  0  0  0
  -48.9469   -2.5856  -18.5304 Br  0  0  0  0  0  0  0  0  0  0  0  0
  -50.9520    2.3732  -16.5690 Br  0  0  0  0  0  0  0  0  0  0  0  0
  -51.8680    3.0217  -20.5197 H   0  0  0  0  0  0  0  0  0  0  0  0
  -50.6754    0.9353  -24.2967 C   0  0  0  0  0  0  0  0  0  0  0  0
  -50.2414    2.1501  -24.8500 C   0  0  0  0  0  0  0  0  0  0  0  0
  -50.5469    2.4738  -26.1755 C   0  0  0  0  0  0  0  0  0  0  0  0
  -51.3029    1.5941  -26.9547 C   0  0  0  0  0  0  0  0  0  0  0  0
  -51.7618    0.3937  -26.4055 C   0  0  0  0  0  0  0  0  0  0  0  0
  -51.4572    0.0661  -25.0804 C   0  0  0  0  0  0  0  0  0  0  0  0
  -51.6012    1.9103  -28.2389 F   0  0  0  0  0  0  0  0  0  0  0  0
  1  5  1  0  0  0
  1  2  2  0  0  0
  1  3  1  0  0  0
  5  6  2  0  0  0
  5 10  1  0  0  0
  6  7  1  0  0  0
  6 11  1  0  0  0
  7  8  2  0  0  0
  7 13  1  0  0  0
  8  9  1  0  0  0
  9 10  2  0  0  0
  9 12  1  0  0  0
  3 15  1  0  0  0
  3  4  1  0  0  0
 11 14  1  0  0  0
 15 16  2  0  0  0
 15 20  1  0  0  0
 16 17  1  0  0  0
 17 18  2  0  0  0
 18 19  1  0  0  0
 18 21  1  0  0  0
 19 20  2  0  0  0
M  END
> <minimizedAffinity>
-7.39330

$$$$
Untitled Document-1


 19 20  0  0  0  0  0  0  0  0999 V2000
  -51.0124    0.3525  -23.6270 C   0  0  0  0  0  0  0  0  0  0  0  0
  -50.8237   -0.7888  -23.1251 O   0  0  0  0  0  0  0  0  0  0  0  0
  -51.2452    1.4894  -22.7773 N   0  0  0  0  0  0  0  0  0  0  0  0
  -51.5370    2.3297  -23.1993 H   0  0  0  0  0  0  0  0  0  0  0  0
  -51.0595    0.4966  -25.0973 C   0  0  0  0  0  0  0  0  0  0  0  0
  -51.4228   -0.5817  -25.9411 C   0  0  0  0  0  0  0  0  0  0  0  0
  -51.5172   -0.3788  -27.3235 C   0  0  0  0  0  0  0  0  0  0  0  0
  -51.2346    0.8707  -27.8782 C   0  0  0  0  0  0  0  0  0  0  0  0
  -50.8582    1.9312  -27.0538 C   0  0  0  0  0  0  0  0  0  0  0  0
  -50.7723    1.7479  -25.6718 C   0  0  0  0  0  0  0  0  0  0  0  0
  -51.6689   -1.8646  -25.4467 O   0  0  0  0  0  0  0  0  0  0  0  0
  -51.6132   -2.0306  -24.5262 H   0  0  0  0  0  0  0  0  0  0  0  0
  -51.0778    1.4736  -21.3495 C   0  0  0  0  0  0  0  0  0  0  0  0
  -52.1069    1.9649  -20.5311 C   0  0  0  0  0  0  0  0  0  0  0  0
  -51.9595    1.9819  -19.1408 C   0  0  0  0  0  0  0  0  0  0  0  0
  -50.7757    1.5228  -18.5557 C   0  0  0  0  0  0  0  0  0  0  0  0
  -49.7351    1.0544  -19.3636 C   0  0  0  0  0  0  0  0  0  0  0  0
  -49.8801    1.0352  -20.7544 C   0  0  0  0  0  0  0  0  0  0  0  0
  -50.5742    1.5501  -16.6568 Br  0  0  0  0  0  0  0  0  0  0  0  0
  1  5  1  0  0  0
  1  2  2  0  0  0
  1  3  1  0  0  0
  5  6  2  0  0  0
  5 10  1  0  0  0
  6  7  1  0  0  0
  6 11  1  0  0  0
  7  8  2  0  0  0
  8  9  1  0  0  0
  9 10  2  0  0  0
  3 13  1  0  0  0
  3  4  1  0  0  0
 11 12  1  0  0  0
 13 14  2  0  0  0
 13 18  1  0  0  0
 14 15  1  0  0  0
 15 16  2  0  0  0
 16 17  1  0  0  0
 16 19  1  0  0  0
 17 18  2  0  0  0
M  END
> <minimizedAffinity>
-7.44092

$$$$
Untitled Document-1


 20 21  0  0  0  0  0  0  0  0999 V2000
  -51.3688    1.3099  -22.1073 C   0  0  0  0  0  0  0  0  0  0  0  0
  -52.5678    1.4450  -22.4739 O   0  0  0  0  0  0  0  0  0  0  0  0
  -50.3341    1.0728  -23.0790 N   0  0  0  0  0  0  0  0  0  0  0  0
  -49.4101    0.9694  -22.7554 H   0  0  0  0  0  0  0  0  0  0  0  0
  -51.0463    1.4059  -20.6672 C   0  0  0  0  0  0  0  0  0  0  0  0
  -51.8448    2.1573  -19.7780 C   0  0  0  0  0  0  0  0  0  0  0  0
  -51.5113    2.2092  -18.4160 C   0  0  0  0  0  0  0  0  0  0  0  0
  -50.3813    1.5408  -17.9401 C   0  0  0  0  0  0  0  0  0  0  0  0
  -49.5736    0.8199  -18.8207 C   0  0  0  0  0  0  0  0  0  0  0  0
  -49.9000    0.7558  -20.1778 C   0  0  0  0  0  0  0  0  0  0  0  0
  -52.9462    2.8733  -20.2468 O   0  0  0  0  0  0  0  0  0  0  0  0
  -53.1731    2.8420  -21.1554 H   0  0  0  0  0  0  0  0  0  0  0  0
  -50.5694    0.9782  -24.4941 C   0  0  0  0  0  0  0  0  0  0  0  0
  -50.4678    2.1305  -25.2924 C   0  0  0  0  0  0  0  0  0  0  0  0
  -50.7181    2.0610  -26.6670 C   0  0  0  0  0  0  0  0  0  0  0  0
  -51.0869    0.8470  -27.2526 C   0  0  0  0  0  0  0  0  0  0  0  0
  -51.2139   -0.2986  -26.4630 C   0  0  0  0  0  0  0  0  0  0  0  0
  -50.9635   -0.2348  -25.0888 C   0  0  0  0  0  0  0  0  0  0  0  0
  -51.3318    0.7833  -28.5846 F   0  0  0  0  0  0  0  0  0  0  0  0
  -50.1090    3.3170  -24.7403 F   0  0  0  0  0  0  0  0  0  0  0  0
  1  5  1  0  0  0
  1  2  2  0  0  0
  1  3  1  0  0  0
  5  6  2  0  0  0
  5 10  1  0  0  0
  6  7  1  0  0  0
  6 11  1  0  0  0
  7  8  2  0  0  0
  8  9  1  0  0  0
  9 10  2  0  0  0
  3 13  1  0  0  0
  3  4  1  0  0  0
 11 12  1  0  0  0
 13 14  2  0  0  0
 13 18  1  0  0  0
 14 15  1  0  0  0
 14 20  1  0  0  0
 15 16  2  0  0  0
 16 17  1  0  0  0
 16 19  1  0  0  0
 17 18  2  0  0  0
M  END
> <minimizedAffinity>
-7.91068

$$$$
Untitled Document-1


 20 21  0  0  0  0  0  0  0  0999 V2000
  -51.3040    1.2465  -21.9100 C   0  0  0  0  0  0  0  0  0  0  0  0
  -52.4947    1.4764  -22.2558 O   0  0  0  0  0  0  0  0  0  0  0  0
  -50.3280    0.8480  -22.8884 N   0  0  0  0  0  0  0  0  0  0  0  0
  -49.4524    0.5335  -22.5663 H   0  0  0  0  0  0  0  0  0  0  0  0
  -50.9390    1.3242  -20.4798 C   0  0  0  0  0  0  0  0  0  0  0  0
  -51.7005    2.0810  -19.5562 C   0  0  0  0  0  0  0  0  0  0  0  0
  -51.3535    2.0715  -18.1997 C   0  0  0  0  0  0  0  0  0  0  0  0
  -50.2506    1.3410  -17.7543 C   0  0  0  0  0  0  0  0  0  0  0  0
  -49.4849    0.6078  -18.6622 C   0  0  0  0  0  0  0  0  0  0  0  0
  -49.8275    0.5972  -20.0172 C   0  0  0  0  0  0  0  0  0  0  0  0
  -47.8214   -0.4988  -17.9861 I   0  0  0  0  0  0  0  0  0  0  0  0
  -52.7836    2.8690  -19.9520 O   0  0  0  0  0  0  0  0  0  0  0  0
  -53.0392    2.8954  -20.8531 H   0  0  0  0  0  0  0  0  0  0  0  0
  -50.5529    0.8809  -24.3081 C   0  0  0  0  0  0  0  0  0  0  0  0
  -50.3981    2.0920  -25.0009 C   0  0  0  0  0  0  0  0  0  0  0  0
  -50.6336    2.1553  -26.3778 C   0  0  0  0  0  0  0  0  0  0  0  0
  -51.0411    1.0130  -27.0719 C   0  0  0  0  0  0  0  0  0  0  0  0
  -51.2219   -0.1920  -26.3875 C   0  0  0  0  0  0  0  0  0  0  0  0
  -50.9863   -0.2594  -25.0105 C   0  0  0  0  0  0  0  0  0  0  0  0
  -51.2720    1.0764  -28.4063 F   0  0  0  0  0  0  0  0  0  0  0  0
  1  5  1  0  0  0
  1  2  2  0  0  0
  1  3  1  0  0  0
  5  6  2  0  0  0
  5 10  1  0  0  0
  6  7  1  0  0  0
  6 12  1  0  0  0
  7  8  2  0  0  0
  8  9  1  0  0  0
  9 10  2  0  0  0
  9 11  1  0  0  0
  3 14  1  0  0  0
  3  4  1  0  0  0
 12 13  1  0  0  0
 14 15  2  0  0  0
 14 19  1  0  0  0
 15 16  1  0  0  0
 16 17  2  0  0  0
 17 18  1  0  0  0
 17 20  1  0  0  0
 18 19  2  0  0  0
M  END
> <minimizedAffinity>
-7.69968

$$$$
Untitled Document-1


 22 23  0  0  0  0  0  0  0  0999 V2000
  -51.2904    1.4286  -20.3086 C   0  0  0  0  0  0  0  0  0  0  0  0
  -52.4515    1.8007  -20.6302 O   0  0  0  0  0  0  0  0  0  0  0  0
  -50.3593    1.0020  -21.3184 N   0  0  0  0  0  0  0  0  0  0  0  0
  -49.4211    0.8641  -21.0535 H   0  0  0  0  0  0  0  0  0  0  0  0
  -50.8744    1.5009  -18.8921 C   0  0  0  0  0  0  0  0  0  0  0  0
  -49.9775    0.5616  -18.3296 C   0  0  0  0  0  0  0  0  0  0  0  0
  -49.6633    0.6311  -16.9669 C   0  0  0  0  0  0  0  0  0  0  0  0
  -50.1996    1.6426  -16.1582 C   0  0  0  0  0  0  0  0  0  0  0  0
  -51.0869    2.5712  -16.7164 C   0  0  0  0  0  0  0  0  0  0  0  0
  -51.4174    2.5040  -18.0713 C   0  0  0  0  0  0  0  0  0  0  0  0
  -49.8809    1.6878  -14.6930 C   0  0  0  0  0  0  0  0  0  0  0  0
  -49.3642   -0.4331  -19.0947 O   0  0  0  0  0  0  0  0  0  0  0  0
  -49.5545   -0.5048  -20.0094 H   0  0  0  0  0  0  0  0  0  0  0  0
  -50.7150    0.7648  -22.6911 C   0  0  0  0  0  0  0  0  0  0  0  0
  -51.2693   -0.4704  -23.0532 C   0  0  0  0  0  0  0  0  0  0  0  0
  -51.6449   -0.7199  -24.3758 C   0  0  0  0  0  0  0  0  0  0  0  0
  -51.4869    0.2713  -25.3620 C   0  0  0  0  0  0  0  0  0  0  0  0
  -50.9552    1.5181  -24.9915 C   0  0  0  0  0  0  0  0  0  0  0  0
  -50.5788    1.7656  -23.6682 C   0  0  0  0  0  0  0  0  0  0  0  0
  -51.8920    0.0164  -26.8018 C   0  0  0  0  0  0  0  0  0  0  0  0
  -51.5517   -1.4173  -27.2256 C   0  0  0  0  0  0  0  0  0  0  0  0
  -51.2489    1.0385  -27.7467 C   0  0  0  0  0  0  0  0  0  0  0  0
  1  5  1  0  0  0
  1  2  2  0  0  0
  1  3  1  0  0  0
  5  6  2  0  0  0
  5 10  1  0  0  0
  6  7  1  0  0  0
  6 12  1  0  0  0
  7  8  2  0  0  0
  8  9  1  0  0  0
  8 11  1  0  0  0
  9 10  2  0  0  0
  3 14  1  0  0  0
  3  4  1  0  0  0
 14 15  2  0  0  0
 14 19  1  0  0  0
 15 16  1  0  0  0
 16 17  2  0  0  0
 17 18  1  0  0  0
 17 20  1  0  0  0
 18 19  2  0  0  0
 20 21  1  0  0  0
 20 22  1  0  0  0
 12 13  1  0  0  0
M  END
> <minimizedAffinity>
-7.94302

$$$$
Untitled Document-1


 21 22  0  0  0  0  0  0  0  0999 V2000
  -51.3365    1.2725  -22.1228 C   0  0  0  0  0  0  0  0  0  0  0  0
  -52.5316    1.4726  -22.4717 O   0  0  0  0  0  0  0  0  0  0  0  0
  -50.3520    0.8840  -23.0966 N   0  0  0  0  0  0  0  0  0  0  0  0
  -49.4676    0.5975  -22.7727 H   0  0  0  0  0  0  0  0  0  0  0  0
  -50.9732    1.3747  -20.6937 C   0  0  0  0  0  0  0  0  0  0  0  0
  -51.7718    2.0913  -19.7706 C   0  0  0  0  0  0  0  0  0  0  0  0
  -51.4230    2.1052  -18.4145 C   0  0  0  0  0  0  0  0  0  0  0  0
  -50.2708    1.4463  -17.9641 C   0  0  0  0  0  0  0  0  0  0  0  0
  -49.4815    0.7382  -18.8787 C   0  0  0  0  0  0  0  0  0  0  0  0
  -49.8268    0.7067  -20.2313 C   0  0  0  0  0  0  0  0  0  0  0  0
  -49.9247    1.4415  -16.5044 C   0  0  0  0  0  0  0  0  0  0  0  0
  -52.8979    2.8168  -20.1660 O   0  0  0  0  0  0  0  0  0  0  0  0
  -53.1565    2.8268  -21.0665 H   0  0  0  0  0  0  0  0  0  0  0  0
  -50.5837    0.8893  -24.5160 C   0  0  0  0  0  0  0  0  0  0  0  0
  -50.4477    2.0880  -25.2379 C   0  0  0  0  0  0  0  0  0  0  0  0
  -50.6933    2.1142  -26.6148 C   0  0  0  0  0  0  0  0  0  0  0  0
  -51.0907    0.9510  -27.2793 C   0  0  0  0  0  0  0  0  0  0  0  0
  -51.2505   -0.2399  -26.5664 C   0  0  0  0  0  0  0  0  0  0  0  0
  -51.0052   -0.2721  -25.1902 C   0  0  0  0  0  0  0  0  0  0  0  0
  -51.3307    0.9802  -28.6134 F   0  0  0  0  0  0  0  0  0  0  0  0
  -50.0605    3.2266  -24.6098 F   0  0  0  0  0  0  0  0  0  0  0  0
  1  5  1  0  0  0
  1  2  2  0  0  0
  1  3  1  0  0  0
  5  6  2  0  0  0
  5 10  1  0  0  0
  6  7  1  0  0  0
  6 12  1  0  0  0
  7  8  2  0  0  0
  8  9  1  0  0  0
  8 11  1  0  0  0
  9 10  2  0  0  0
  3 14  1  0  0  0
  3  4  1  0  0  0
 12 13  1  0  0  0
 14 15  2  0  0  0
 14 19  1  0  0  0
 15 16  1  0  0  0
 15 21  1  0  0  0
 16 17  2  0  0  0
 17 18  1  0  0  0
 17 20  1  0  0  0
 18 19  2  0  0  0
M  END
> <minimizedAffinity>
-8.39212

$$$$
Untitled Document-1


 19 20  0  0  0  0  0  0  0  0999 V2000
  -51.5515    1.3679  -22.7178 C   0  0  0  0  0  0  0  0  0  0  0  0
  -52.7690    1.4004  -23.0451 O   0  0  0  0  0  0  0  0  0  0  0  0
  -50.5277    1.3208  -23.7281 N   0  0  0  0  0  0  0  0  0  0  0  0
  -49.5884    1.3103  -23.4333 H   0  0  0  0  0  0  0  0  0  0  0  0
  -51.1973    1.3731  -21.2821 C   0  0  0  0  0  0  0  0  0  0  0  0
  -51.9888    2.0447  -20.3274 C   0  0  0  0  0  0  0  0  0  0  0  0
  -51.6088    2.0392  -18.9768 C   0  0  0  0  0  0  0  0  0  0  0  0
  -50.4529    1.3615  -18.5640 C   0  0  0  0  0  0  0  0  0  0  0  0
  -49.6950    0.6558  -19.5077 C   0  0  0  0  0  0  0  0  0  0  0  0
  -50.0632    0.6630  -20.8551 C   0  0  0  0  0  0  0  0  0  0  0  0
  -50.0774    1.3230  -17.1121 C   0  0  0  0  0  0  0  0  0  0  0  0
  -53.1652    2.6889  -20.7104 O   0  0  0  0  0  0  0  0  0  0  0  0
  -53.4238    2.6957  -21.6111 H   0  0  0  0  0  0  0  0  0  0  0  0
  -50.7912    1.2881  -25.1408 C   0  0  0  0  0  0  0  0  0  0  0  0
  -50.6719    2.4699  -25.8888 C   0  0  0  0  0  0  0  0  0  0  0  0
  -50.8992    2.4605  -27.2684 C   0  0  0  0  0  0  0  0  0  0  0  0
  -51.2311    1.2673  -27.9150 C   0  0  0  0  0  0  0  0  0  0  0  0
  -51.3271    0.0804  -27.1841 C   0  0  0  0  0  0  0  0  0  0  0  0
  -51.1016    0.0860  -25.8038 C   0  0  0  0  0  0  0  0  0  0  0  0
  1  5  1  0  0  0
  1  2  2  0  0  0
  1  3  1  0  0  0
  5  6  2  0  0  0
  5 10  1  0  0  0
  6  7  1  0  0  0
  6 12  1  0  0  0
  7  8  2  0  0  0
  8  9  1  0  0  0
  8 11  1  0  0  0
  9 10  2  0  0  0
  3 14  1  0  0  0
  3  4  1  0  0  0
 14 15  2  0  0  0
 14 19  1  0  0  0
 15 16  1  0  0  0
 16 17  2  0  0  0
 17 18  1  0  0  0
 18 19  2  0  0  0
 12 13  1  0  0  0
M  END
> <minimizedAffinity>
-7.81323

$$$$
Untitled Document-1


 20 21  0  0  0  0  0  0  0  0999 V2000
  -51.0308    1.1745  -21.2654 C   0  0  0  0  0  0  0  0  0  0  0  0
  -52.2364    1.3877  -21.5671 O   0  0  0  0  0  0  0  0  0  0  0  0
  -50.0590    0.9114  -22.2940 N   0  0  0  0  0  0  0  0  0  0  0  0
  -49.1305    0.7362  -22.0179 H   0  0  0  0  0  0  0  0  0  0  0  0
  -50.6343    1.2053  -19.8411 C   0  0  0  0  0  0  0  0  0  0  0  0
  -51.4140    1.8678  -18.8704 C   0  0  0  0  0  0  0  0  0  0  0  0
  -51.0111    1.8596  -17.5265 C   0  0  0  0  0  0  0  0  0  0  0  0
  -49.8319    1.2071  -17.1395 C   0  0  0  0  0  0  0  0  0  0  0  0
  -49.0354    0.5906  -18.1134 C   0  0  0  0  0  0  0  0  0  0  0  0
  -49.4340    0.5885  -19.4520 C   0  0  0  0  0  0  0  0  0  0  0  0
  -49.3849    1.2405  -15.7080 C   0  0  0  0  0  0  0  0  0  0  0  0
  -52.5678    2.5590  -19.2406 O   0  0  0  0  0  0  0  0  0  0  0  0
  -52.8414    2.5678  -20.1367 H   0  0  0  0  0  0  0  0  0  0  0  0
  -50.3603    0.8885  -23.6993 C   0  0  0  0  0  0  0  0  0  0  0  0
  -50.5784   -0.3438  -24.3344 C   0  0  0  0  0  0  0  0  0  0  0  0
  -50.8496   -0.3963  -25.7051 C   0  0  0  0  0  0  0  0  0  0  0  0
  -50.8887    0.7817  -26.4573 C   0  0  0  0  0  0  0  0  0  0  0  0
  -50.6470    2.0121  -25.8384 C   0  0  0  0  0  0  0  0  0  0  0  0
  -50.3767    2.0674  -24.4674 C   0  0  0  0  0  0  0  0  0  0  0  0
  -51.2254    0.7147  -28.1775 Cl  0  0  0  0  0  0  0  0  0  0  0  0
  1  5  1  0  0  0
  1  2  2  0  0  0
  1  3  1  0  0  0
  5  6  2  0  0  0
  5 10  1  0  0  0
  6  7  1  0  0  0
  6 12  1  0  0  0
  7  8  2  0  0  0
  8  9  1  0  0  0
  8 11  1  0  0  0
  9 10  2  0  0  0
  3 14  1  0  0  0
  3  4  1  0  0  0
 12 13  1  0  0  0
 14 15  2  0  0  0
 14 19  1  0  0  0
 15 16  1  0  0  0
 16 17  2  0  0  0
 17 18  1  0  0  0
 17 20  1  0  0  0
 18 19  2  0  0  0
M  END
> <minimizedAffinity>
-7.78493

$$$$
