
     RDKit          3D

 12 12  0  0  0  0  0  0  0  0999 V2000
   -1.9113    0.8571    0.3497 C   0  0  0  0  0  0  0  0  0  0  0  0
   -2.6687    1.0002   -0.7679 O   0  0  0  0  0  0  0  0  0  0  0  0
   -0.5374    0.4807   -0.0359 C   0  0  0  0  0  0  0  0  0  0  0  0
   -2.2887    1.0701    1.4913 O   0  0  0  0  0  0  0  0  0  0  0  0
    0.3597    1.4825   -0.1308 C   0  0  0  0  0  0  0  0  0  0  0  0
   -0.0735   -0.8955    0.0409 C   0  0  0  0  0  0  0  0  0  0  0  0
    1.7734    1.2080    0.0701 C   0  0  0  0  0  0  0  0  0  0  0  0
    1.2416   -1.1570    0.1701 C   0  0  0  0  0  0  0  0  0  0  0  0
   -1.0367   -1.8705   -0.0523 O   0  0  0  0  0  0  0  0  0  0  0  0
    2.2083   -0.0601    0.2185 C   0  0  0  0  0  0  0  0  0  0  0  0
    3.6478   -0.4162    0.4272 C   0  0  0  0  0  0  0  0  0  0  0  0
   -3.8450    0.1983   -0.7144 C   0  0  0  0  0  0  0  0  0  0  0  0
  1  2  1  0
  1  3  1  0
  1  4  2  0
  3  5  2  0
  6  3  1  0
  5  7  1  0
  8  6  2  0
  6  9  1  0
  7 10  2  0
 10  8  1  0
 10 11  1  0
  2 12  1  0
M  END
>  <ID>  (1) 


>  <MolWt>  (1) 
166.062994

>  <LogP>  (1) 
1.48722

>  <NumHDonors>  (1) 
1

>  <NumHAcceptors>  (1) 
3

$$$$

     RDKit          3D

 19 20  0  0  0  0  0  0  0  0999 V2000
   -1.1659   -1.3785    0.4109 N   0  0  0  0  0  0  0  0  0  0  0  0
   -1.8803   -0.3331   -0.1456 C   0  0  0  0  0  0  0  0  0  0  0  0
   -0.2381   -2.0558   -0.3502 C   0  0  0  0  0  0  0  0  0  0  0  0
    1.1540   -1.5673   -0.2059 C   0  0  0  0  0  0  0  0  0  0  0  0
   -0.5105   -2.9855   -1.1008 O   0  0  0  0  0  0  0  0  0  0  0  0
    1.7396   -1.6744    1.0033 C   0  0  0  0  0  0  0  0  0  0  0  0
    1.6962   -0.6195   -1.1684 C   0  0  0  0  0  0  0  0  0  0  0  0
    2.5285   -0.5575    1.5018 C   0  0  0  0  0  0  0  0  0  0  0  0
    2.5163    0.3580   -0.7460 C   0  0  0  0  0  0  0  0  0  0  0  0
    1.3807   -0.7783   -2.4978 O   0  0  0  0  0  0  0  0  0  0  0  0
    2.9001    0.4343    0.6643 C   0  0  0  0  0  0  0  0  0  0  0  0
    3.7170    1.6144    1.0908 C   0  0  0  0  0  0  0  0  0  0  0  0
   -2.8546   -0.5530   -1.0521 C   0  0  0  0  0  0  0  0  0  0  0  0
   -1.8368    0.9558    0.5433 C   0  0  0  0  0  0  0  0  0  0  0  0
   -3.9750    0.3772   -1.1796 C   0  0  0  0  0  0  0  0  0  0  0  0
   -2.8320    1.8431    0.3891 C   0  0  0  0  0  0  0  0  0  0  0  0
   -0.7517    1.2271    1.3431 O   0  0  0  0  0  0  0  0  0  0  0  0
   -5.5484   -0.0680   -2.4374 I   0  0  0  0  0  0  0  0  0  0  0  0
   -3.9536    1.5308   -0.4809 C   0  0  0  0  0  0  0  0  0  0  0  0
  1  2  1  0
  3  1  1  0
  3  4  1  0
  3  5  2  0
  4  6  2  0
  7  4  1  0
  6  8  1  0
  9  7  2  0
  7 10  1  0
  8 11  2  0
 11  9  1  0
 11 12  1  0
  2 13  2  0
 14  2  1  0
 13 15  1  0
 16 14  2  0
 14 17  1  0
 15 18  1  0
 15 19  2  0
 19 16  1  0
M  END
>  <ID>  (2) 


>  <MolWt>  (2) 
368.986191

>  <LogP>  (2) 
3.26312

>  <NumHDonors>  (2) 
3

>  <NumHAcceptors>  (2) 
3

$$$$

     RDKit          3D

 18 19  0  0  0  0  0  0  0  0999 V2000
   -0.9394    0.1036   -1.6424 N   0  0  0  0  0  0  0  0  0  0  0  0
   -1.9807   -0.4272   -0.9114 C   0  0  0  0  0  0  0  0  0  0  0  0
   -0.4102    1.3408   -1.3475 C   0  0  0  0  0  0  0  0  0  0  0  0
    0.7529    1.3150   -0.4264 C   0  0  0  0  0  0  0  0  0  0  0  0
   -0.7643    2.3904   -1.8745 O   0  0  0  0  0  0  0  0  0  0  0  0
    0.5303    1.1010    0.8846 C   0  0  0  0  0  0  0  0  0  0  0  0
    2.0996    1.1463   -0.9513 C   0  0  0  0  0  0  0  0  0  0  0  0
    1.4692    0.2769    1.6308 C   0  0  0  0  0  0  0  0  0  0  0  0
    3.0143    0.4753   -0.2302 C   0  0  0  0  0  0  0  0  0  0  0  0
    2.4088    1.7207   -2.1627 O   0  0  0  0  0  0  0  0  0  0  0  0
    2.6679   -0.0388    1.0955 C   0  0  0  0  0  0  0  0  0  0  0  0
    3.6888   -0.8801    1.7959 C   0  0  0  0  0  0  0  0  0  0  0  0
   -3.1803    0.1859   -0.8714 C   0  0  0  0  0  0  0  0  0  0  0  0
   -1.7332   -1.5577   -0.0057 C   0  0  0  0  0  0  0  0  0  0  0  0
   -4.0222    0.0391    0.3028 C   0  0  0  0  0  0  0  0  0  0  0  0
   -2.5749   -1.7638    1.0278 C   0  0  0  0  0  0  0  0  0  0  0  0
   -0.2971   -2.7079   -0.3375 Br  0  0  0  0  0  0  0  0  0  0  0  0
   -3.7269   -0.8974    1.2211 C   0  0  0  0  0  0  0  0  0  0  0  0
  1  2  1  0
  3  1  1  0
  3  4  1  0
  3  5  2  0
  4  6  2  0
  7  4  1  0
  6  8  1  0
  9  7  2  0
  7 10  1  0
  8 11  2  0
 11  9  1  0
 11 12  1  0
  2 13  2  0
 14  2  1  0
 13 15  1  0
 16 14  2  0
 14 17  1  0
 15 18  2  0
 18 16  1  0
M  END
>  <ID>  (3) 


>  <MolWt>  (3) 
305.005141

>  <LogP>  (3) 
3.71542

>  <NumHDonors>  (3) 
2

>  <NumHAcceptors>  (3) 
2

$$$$

     RDKit          3D

 18 19  0  0  0  0  0  0  0  0999 V2000
   -0.6225   -1.8198    0.6957 N   0  0  0  0  0  0  0  0  0  0  0  0
   -1.3593   -0.6660    0.5541 C   0  0  0  0  0  0  0  0  0  0  0  0
    0.0772   -2.3154   -0.3787 C   0  0  0  0  0  0  0  0  0  0  0  0
    1.4198   -1.7211   -0.5976 C   0  0  0  0  0  0  0  0  0  0  0  0
   -0.3579   -3.1817   -1.1325 O   0  0  0  0  0  0  0  0  0  0  0  0
    2.3001   -1.6725    0.4217 C   0  0  0  0  0  0  0  0  0  0  0  0
    1.6958   -0.9565   -1.8073 C   0  0  0  0  0  0  0  0  0  0  0  0
    3.2396   -0.5631    0.4926 C   0  0  0  0  0  0  0  0  0  0  0  0
    2.6345    0.0054   -1.7870 C   0  0  0  0  0  0  0  0  0  0  0  0
    1.0178   -1.2782   -2.9624 O   0  0  0  0  0  0  0  0  0  0  0  0
    3.4022    0.2568   -0.5674 C   0  0  0  0  0  0  0  0  0  0  0  0
    4.3534    1.4126   -0.5800 C   0  0  0  0  0  0  0  0  0  0  0  0
   -0.9947    0.4633    1.1878 C   0  0  0  0  0  0  0  0  0  0  0  0
   -2.7002   -0.7699   -0.0023 C   0  0  0  0  0  0  0  0  0  0  0  0
   -1.9949    1.4617    1.5282 C   0  0  0  0  0  0  0  0  0  0  0  0
   -3.6130    0.1844    0.2562 C   0  0  0  0  0  0  0  0  0  0  0  0
   -3.2613    1.3372    1.0815 C   0  0  0  0  0  0  0  0  0  0  0  0
   -4.3410    2.3319    1.3751 C   0  0  0  0  0  0  0  0  0  0  0  0
  1  2  1  0
  3  1  1  0
  3  4  1  0
  3  5  2  0
  4  6  2  0
  7  4  1  0
  6  8  1  0
  9  7  2  0
  7 10  1  0
  8 11  2  0
 11  9  1  0
 11 12  1  0
  2 13  2  0
 14  2  1  0
 13 15  1  0
 16 14  2  0
 15 17  2  0
 17 16  1  0
 17 18  1  0
M  END
>  <ID>  (4) 


>  <MolWt>  (4) 
241.110279

>  <LogP>  (4) 
3.26134

>  <NumHDonors>  (4) 
2

>  <NumHAcceptors>  (4) 
2

$$$$

     RDKit          3D

 18 19  0  0  0  0  0  0  0  0999 V2000
    0.8418    1.7161   -0.3315 N   0  0  0  0  0  0  0  0  0  0  0  0
    1.9455    1.1459    0.2659 C   0  0  0  0  0  0  0  0  0  0  0  0
    0.3227    1.2109   -1.5032 C   0  0  0  0  0  0  0  0  0  0  0  0
   -0.8073    0.2659   -1.3260 C   0  0  0  0  0  0  0  0  0  0  0  0
    0.6584    1.5746   -2.6258 O   0  0  0  0  0  0  0  0  0  0  0  0
   -0.5520   -0.9680   -0.8502 C   0  0  0  0  0  0  0  0  0  0  0  0
   -2.1777    0.7554   -1.3229 C   0  0  0  0  0  0  0  0  0  0  0  0
   -1.5074   -1.5813    0.0599 C   0  0  0  0  0  0  0  0  0  0  0  0
   -3.1019    0.1372   -0.5677 C   0  0  0  0  0  0  0  0  0  0  0  0
   -2.4975    1.8196   -2.1344 O   0  0  0  0  0  0  0  0  0  0  0  0
   -2.7391   -1.0489    0.2090 C   0  0  0  0  0  0  0  0  0  0  0  0
   -3.7809   -1.6202    1.1196 C   0  0  0  0  0  0  0  0  0  0  0  0
    3.1449    1.1351   -0.3488 C   0  0  0  0  0  0  0  0  0  0  0  0
    1.8021    0.4534    1.5497 C   0  0  0  0  0  0  0  0  0  0  0  0
    4.1660    0.1904    0.0716 C   0  0  0  0  0  0  0  0  0  0  0  0
    2.7839   -0.3590    1.9849 C   0  0  0  0  0  0  0  0  0  0  0  0
    0.3942    0.7141    2.5153 Cl  0  0  0  0  0  0  0  0  0  0  0  0
    3.9911   -0.5310    1.1928 C   0  0  0  0  0  0  0  0  0  0  0  0
  1  2  1  0
  3  1  1  0
  3  4  1  0
  3  5  2  0
  4  6  2  0
  7  4  1  0
  6  8  1  0
  9  7  2  0
  7 10  1  0
  8 11  2  0
 11  9  1  0
 11 12  1  0
  2 13  2  0
 14  2  1  0
 13 15  1  0
 16 14  2  0
 14 17  1  0
 15 18  2  0
 18 16  1  0
M  END
>  <ID>  (5) 


>  <MolWt>  (5) 
261.055656

>  <LogP>  (5) 
3.60632

>  <NumHDonors>  (5) 
2

>  <NumHAcceptors>  (5) 
2

$$$$

     RDKit          3D

 19 20  0  0  0  0  0  0  0  0999 V2000
    1.0647   -1.2484    0.8141 N   0  0  0  0  0  0  0  0  0  0  0  0
    2.2275   -1.1880    0.0750 C   0  0  0  0  0  0  0  0  0  0  0  0
    0.4759   -0.0846    1.2688 C   0  0  0  0  0  0  0  0  0  0  0  0
   -0.8403    0.1705    0.6353 C   0  0  0  0  0  0  0  0  0  0  0  0
    0.9640    0.6578    2.1120 O   0  0  0  0  0  0  0  0  0  0  0  0
   -0.9136    1.1923   -0.2408 C   0  0  0  0  0  0  0  0  0  0  0  0
   -2.0567   -0.4886    1.0873 C   0  0  0  0  0  0  0  0  0  0  0  0
   -2.2123    1.6752   -0.6854 C   0  0  0  0  0  0  0  0  0  0  0  0
   -3.2585   -0.0482    0.6649 C   0  0  0  0  0  0  0  0  0  0  0  0
   -1.8947   -1.5635    1.9286 O   0  0  0  0  0  0  0  0  0  0  0  0
   -3.3468    1.0885   -0.2516 C   0  0  0  0  0  0  0  0  0  0  0  0
   -4.7142    1.5437   -0.6581 C   0  0  0  0  0  0  0  0  0  0  0  0
    2.1888   -0.9279   -1.2474 C   0  0  0  0  0  0  0  0  0  0  0  0
    3.5253   -1.2085    0.7532 C   0  0  0  0  0  0  0  0  0  0  0  0
    3.3379   -0.3085   -1.8908 C   0  0  0  0  0  0  0  0  0  0  0  0
    4.6154   -0.7215    0.1301 C   0  0  0  0  0  0  0  0  0  0  0  0
    3.6612   -1.9206    2.3205 Cl  0  0  0  0  0  0  0  0  0  0  0  0
    4.5017   -0.2060   -1.2237 C   0  0  0  0  0  0  0  0  0  0  0  0
    5.8913    0.4991   -1.9558 Cl  0  0  0  0  0  0  0  0  0  0  0  0
  1  2  1  0
  3  1  1  0
  3  4  1  0
  3  5  2  0
  4  6  2  0
  7  4  1  0
  6  8  1  0
  9  7  2  0
  7 10  1  0
  8 11  2  0
 11  9  1  0
 11 12  1  0
  2 13  2  0
 14  2  1  0
 13 15  1  0
 16 14  2  0
 14 17  1  0
 15 18  2  0
 18 16  1  0
 18 19  1  0
M  END
>  <ID>  (6) 


>  <MolWt>  (6) 
295.016684

>  <LogP>  (6) 
4.25972

>  <NumHDonors>  (6) 
2

>  <NumHAcceptors>  (6) 
2

$$$$

     RDKit          3D

 18 19  0  0  0  0  0  0  0  0999 V2000
   -0.7127   -0.7716    1.3063 N   0  0  0  0  0  0  0  0  0  0  0  0
   -1.9165   -0.8393    0.6455 C   0  0  0  0  0  0  0  0  0  0  0  0
   -0.1979    0.4442    1.6926 C   0  0  0  0  0  0  0  0  0  0  0  0
    0.8835    0.9726    0.8260 C   0  0  0  0  0  0  0  0  0  0  0  0
   -0.4922    1.0092    2.7424 O   0  0  0  0  0  0  0  0  0  0  0  0
    0.6369    1.2382   -0.4715 C   0  0  0  0  0  0  0  0  0  0  0  0
    2.2610    0.9911    1.3006 C   0  0  0  0  0  0  0  0  0  0  0  0
    1.7116    1.0819   -1.4403 C   0  0  0  0  0  0  0  0  0  0  0  0
    3.2708    0.9542    0.4142 C   0  0  0  0  0  0  0  0  0  0  0  0
    2.4915    1.1024    2.6539 O   0  0  0  0  0  0  0  0  0  0  0  0
    2.9868    0.9381   -1.0211 C   0  0  0  0  0  0  0  0  0  0  0  0
    4.1506    0.7857   -1.9505 C   0  0  0  0  0  0  0  0  0  0  0  0
   -3.0902   -0.6282    1.2726 C   0  0  0  0  0  0  0  0  0  0  0  0
   -1.9064   -1.4351   -0.6829 C   0  0  0  0  0  0  0  0  0  0  0  0
   -4.3325   -1.0886    0.6704 C   0  0  0  0  0  0  0  0  0  0  0  0
   -3.0584   -1.8346   -1.2535 C   0  0  0  0  0  0  0  0  0  0  0  0
   -4.3154   -1.6652   -0.5445 C   0  0  0  0  0  0  0  0  0  0  0  0
   -5.7635   -2.2104   -1.2960 Cl  0  0  0  0  0  0  0  0  0  0  0  0
  1  2  1  0
  3  1  1  0
  3  4  1  0
  3  5  2  0
  4  6  2  0
  7  4  1  0
  6  8  1  0
  9  7  2  0
  7 10  1  0
  8 11  2  0
 11  9  1  0
 11 12  1  0
  2 13  2  0
 14  2  1  0
 13 15  1  0
 16 14  2  0
 15 17  2  0
 17 16  1  0
 17 18  1  0
M  END
>  <ID>  (7) 


>  <MolWt>  (7) 
261.055656

>  <LogP>  (7) 
3.60632

>  <NumHDonors>  (7) 
2

>  <NumHAcceptors>  (7) 
2

$$$$

     RDKit          3D

 20 21  0  0  0  0  0  0  0  0999 V2000
   -1.1150   -0.3301   -0.8303 N   0  0  0  0  0  0  0  0  0  0  0  0
   -2.3978   -0.3304   -0.3256 C   0  0  0  0  0  0  0  0  0  0  0  0
   -0.1621   -1.2075   -0.3466 C   0  0  0  0  0  0  0  0  0  0  0  0
    1.1673   -0.5712   -0.1667 C   0  0  0  0  0  0  0  0  0  0  0  0
   -0.3465   -2.3994   -0.1303 O   0  0  0  0  0  0  0  0  0  0  0  0
    2.1094   -0.8522   -1.0886 C   0  0  0  0  0  0  0  0  0  0  0  0
    1.5302    0.1340    1.0526 C   0  0  0  0  0  0  0  0  0  0  0  0
    3.4998   -0.5152   -0.8281 C   0  0  0  0  0  0  0  0  0  0  0  0
    2.8163    0.4570    1.2873 C   0  0  0  0  0  0  0  0  0  0  0  0
    0.4986    0.4617    1.9012 O   0  0  0  0  0  0  0  0  0  0  0  0
    3.8514    0.1085    0.3149 C   0  0  0  0  0  0  0  0  0  0  0  0
    5.2653    0.4717    0.6507 C   0  0  0  0  0  0  0  0  0  0  0  0
   -3.3257   -1.1519   -0.8534 C   0  0  0  0  0  0  0  0  0  0  0  0
   -2.8431    0.8508    0.4175 C   0  0  0  0  0  0  0  0  0  0  0  0
   -4.7002   -0.7003   -0.9990 C   0  0  0  0  0  0  0  0  0  0  0  0
   -4.1351    1.2394    0.3602 C   0  0  0  0  0  0  0  0  0  0  0  0
   -1.8898    1.5185    1.1571 O   0  0  0  0  0  0  0  0  0  0  0  0
   -5.8745   -1.7699   -1.9724 Br  0  0  0  0  0  0  0  0  0  0  0  0
   -5.0864    0.4496   -0.4146 C   0  0  0  0  0  0  0  0  0  0  0  0
   -4.8018    2.7404    1.2505 Br  0  0  0  0  0  0  0  0  0  0  0  0
  1  2  1  0
  3  1  1  0
  3  4  1  0
  3  5  2  0
  4  6  2  0
  7  4  1  0
  6  8  1  0
  9  7  2  0
  7 10  1  0
  8 11  2  0
 11  9  1  0
 11 12  1  0
  2 13  2  0
 14  2  1  0
 13 15  1  0
 16 14  2  0
 14 17  1  0
 15 18  1  0
 15 19  2  0
 19 16  1  0
 16 20  1  0
M  END
>  <ID>  (8) 


>  <MolWt>  (8) 
398.910567

>  <LogP>  (8) 
4.18352

>  <NumHDonors>  (8) 
3

>  <NumHAcceptors>  (8) 
3

$$$$

     RDKit          3D

 18 19  0  0  0  0  0  0  0  0999 V2000
    0.6457   -0.5425   -1.5484 N   0  0  0  0  0  0  0  0  0  0  0  0
    1.8814   -0.5736   -0.9463 C   0  0  0  0  0  0  0  0  0  0  0  0
    0.0087    0.6570   -1.7665 C   0  0  0  0  0  0  0  0  0  0  0  0
   -1.0361    1.0002   -0.7723 C   0  0  0  0  0  0  0  0  0  0  0  0
    0.1748    1.3473   -2.7680 O   0  0  0  0  0  0  0  0  0  0  0  0
   -0.6844    1.2369    0.5063 C   0  0  0  0  0  0  0  0  0  0  0  0
   -2.4454    0.8300   -1.0967 C   0  0  0  0  0  0  0  0  0  0  0  0
   -1.6061    0.8688    1.5708 C   0  0  0  0  0  0  0  0  0  0  0  0
   -3.3307    0.5933   -0.1133 C   0  0  0  0  0  0  0  0  0  0  0  0
   -2.8425    0.9733   -2.4074 O   0  0  0  0  0  0  0  0  0  0  0  0
   -2.8853    0.5501    1.2799 C   0  0  0  0  0  0  0  0  0  0  0  0
   -3.8996    0.1734    2.3151 C   0  0  0  0  0  0  0  0  0  0  0  0
    3.0034   -0.2059   -1.5941 C   0  0  0  0  0  0  0  0  0  0  0  0
    1.9825   -1.2925    0.3142 C   0  0  0  0  0  0  0  0  0  0  0  0
    4.3034   -0.6321   -1.0993 C   0  0  0  0  0  0  0  0  0  0  0  0
    3.1874   -1.6572    0.7905 C   0  0  0  0  0  0  0  0  0  0  0  0
    4.3977   -1.3279    0.0501 C   0  0  0  0  0  0  0  0  0  0  0  0
    6.0320   -1.8905    0.7457 Br  0  0  0  0  0  0  0  0  0  0  0  0
  1  2  1  0
  3  1  1  0
  3  4  1  0
  3  5  2  0
  4  6  2  0
  7  4  1  0
  6  8  1  0
  9  7  2  0
  7 10  1  0
  8 11  2  0
 11  9  1  0
 11 12  1  0
  2 13  2  0
 14  2  1  0
 13 15  1  0
 16 14  2  0
 15 17  2  0
 17 16  1  0
 17 18  1  0
M  END
>  <ID>  (9) 


>  <MolWt>  (9) 
305.005141

>  <LogP>  (9) 
3.71542

>  <NumHDonors>  (9) 
2

>  <NumHAcceptors>  (9) 
2

$$$$

     RDKit          3D

 18 19  0  0  0  0  0  0  0  0999 V2000
   -1.3096   -0.8162   -0.7931 N   0  0  0  0  0  0  0  0  0  0  0  0
   -2.2372    0.1505   -0.4483 C   0  0  0  0  0  0  0  0  0  0  0  0
   -0.3349   -0.5341   -1.7303 C   0  0  0  0  0  0  0  0  0  0  0  0
    1.0314   -0.4681   -1.1549 C   0  0  0  0  0  0  0  0  0  0  0  0
   -0.5446   -0.4731   -2.9367 O   0  0  0  0  0  0  0  0  0  0  0  0
    1.8130   -1.5553   -1.3090 C   0  0  0  0  0  0  0  0  0  0  0  0
    1.5275    0.6807   -0.4134 C   0  0  0  0  0  0  0  0  0  0  0  0
    3.0812   -1.6403   -0.6024 C   0  0  0  0  0  0  0  0  0  0  0  0
    2.7220    0.6193    0.2049 C   0  0  0  0  0  0  0  0  0  0  0  0
    0.7082    1.7797   -0.3713 O   0  0  0  0  0  0  0  0  0  0  0  0
    3.5303   -0.5968    0.1247 C   0  0  0  0  0  0  0  0  0  0  0  0
    4.8329   -0.6101    0.8638 C   0  0  0  0  0  0  0  0  0  0  0  0
   -3.2404    0.4864   -1.2847 C   0  0  0  0  0  0  0  0  0  0  0  0
   -2.3912    0.4470    0.9775 C   0  0  0  0  0  0  0  0  0  0  0  0
   -4.5471    0.8399   -0.7522 C   0  0  0  0  0  0  0  0  0  0  0  0
   -3.5754    0.8499    1.4672 C   0  0  0  0  0  0  0  0  0  0  0  0
   -1.2850    0.3022    1.7826 O   0  0  0  0  0  0  0  0  0  0  0  0
   -4.7076    1.0162    0.5718 C   0  0  0  0  0  0  0  0  0  0  0  0
  1  2  1  0
  3  1  1  0
  3  4  1  0
  3  5  2  0
  4  6  2  0
  7  4  1  0
  6  8  1  0
  9  7  2  0
  7 10  1  0
  8 11  2  0
 11  9  1  0
 11 12  1  0
  2 13  2  0
 14  2  1  0
 13 15  1  0
 16 14  2  0
 14 17  1  0
 15 18  2  0
 18 16  1  0
M  END
>  <ID>  (10) 


>  <MolWt>  (10) 
243.089543

>  <LogP>  (10) 
2.65852

>  <NumHDonors>  (10) 
3

>  <NumHAcceptors>  (10) 
3

$$$$

     RDKit          3D

 19 20  0  0  0  0  0  0  0  0999 V2000
    0.5212    1.1209    1.2936 N   0  0  0  0  0  0  0  0  0  0  0  0
    1.3258    0.1808    0.6763 C   0  0  0  0  0  0  0  0  0  0  0  0
   -0.4894    0.7122    2.1350 C   0  0  0  0  0  0  0  0  0  0  0  0
   -1.8187    0.5863    1.4898 C   0  0  0  0  0  0  0  0  0  0  0  0
   -0.3360    0.4541    3.3237 O   0  0  0  0  0  0  0  0  0  0  0  0
   -2.3722    1.6891    0.9473 C   0  0  0  0  0  0  0  0  0  0  0  0
   -2.3019   -0.7216    1.0713 C   0  0  0  0  0  0  0  0  0  0  0  0
   -3.0402    1.5776   -0.3410 C   0  0  0  0  0  0  0  0  0  0  0  0
   -3.0166   -0.8332   -0.0615 C   0  0  0  0  0  0  0  0  0  0  0  0
   -2.0429   -1.8073    1.8758 O   0  0  0  0  0  0  0  0  0  0  0  0
   -3.3466    0.3610   -0.8404 C   0  0  0  0  0  0  0  0  0  0  0  0
   -4.0350    0.1553   -2.1540 C   0  0  0  0  0  0  0  0  0  0  0  0
    2.2552   -0.5060    1.3701 C   0  0  0  0  0  0  0  0  0  0  0  0
    1.4629    0.2652   -0.7775 C   0  0  0  0  0  0  0  0  0  0  0  0
    3.4999   -0.9038    0.7313 C   0  0  0  0  0  0  0  0  0  0  0  0
    2.5802   -0.1674   -1.3845 C   0  0  0  0  0  0  0  0  0  0  0  0
    0.4145    0.7930   -1.4953 O   0  0  0  0  0  0  0  0  0  0  0  0
    3.6654   -0.7475   -0.5980 C   0  0  0  0  0  0  0  0  0  0  0  0
    4.9090   -1.1476   -1.3286 C   0  0  0  0  0  0  0  0  0  0  0  0
  1  2  1  0
  3  1  1  0
  3  4  1  0
  3  5  2  0
  4  6  2  0
  7  4  1  0
  6  8  1  0
  9  7  2  0
  7 10  1  0
  8 11  2  0
 11  9  1  0
 11 12  1  0
  2 13  2  0
 14  2  1  0
 13 15  1  0
 16 14  2  0
 14 17  1  0
 15 18  2  0
 18 16  1  0
 18 19  1  0
M  END
>  <ID>  (11) 


>  <MolWt>  (11) 
257.105193

>  <LogP>  (11) 
2.96694

>  <NumHDonors>  (11) 
3

>  <NumHAcceptors>  (11) 
3

$$$$

     RDKit          3D

 18 19  0  0  0  0  0  0  0  0999 V2000
   -0.9085    1.8091   -0.2547 N   0  0  0  0  0  0  0  0  0  0  0  0
   -2.1292    1.2039   -0.0672 C   0  0  0  0  0  0  0  0  0  0  0  0
   -0.0124    1.2983   -1.1707 C   0  0  0  0  0  0  0  0  0  0  0  0
    0.9287    0.3059   -0.5843 C   0  0  0  0  0  0  0  0  0  0  0  0
    0.0256    1.6258   -2.3518 O   0  0  0  0  0  0  0  0  0  0  0  0
    0.9675   -0.9168   -1.1493 C   0  0  0  0  0  0  0  0  0  0  0  0
    1.9368    0.6808    0.3970 C   0  0  0  0  0  0  0  0  0  0  0  0
    2.1215   -1.7749   -0.9339 C   0  0  0  0  0  0  0  0  0  0  0  0
    2.9819   -0.1350    0.6341 C   0  0  0  0  0  0  0  0  0  0  0  0
    1.7264    1.8638    1.0677 O   0  0  0  0  0  0  0  0  0  0  0  0
    3.0998   -1.4052   -0.0819 C   0  0  0  0  0  0  0  0  0  0  0  0
    4.3166   -2.2372    0.1821 C   0  0  0  0  0  0  0  0  0  0  0  0
   -3.1625    1.4303   -0.9014 C   0  0  0  0  0  0  0  0  0  0  0  0
   -2.3434    0.4010    1.1289 C   0  0  0  0  0  0  0  0  0  0  0  0
   -4.4640    0.8388   -0.6296 C   0  0  0  0  0  0  0  0  0  0  0  0
   -3.5458   -0.1372    1.3900 C   0  0  0  0  0  0  0  0  0  0  0  0
   -1.3146    0.2158    1.9821 F   0  0  0  0  0  0  0  0  0  0  0  0
   -4.6483    0.0841    0.4692 C   0  0  0  0  0  0  0  0  0  0  0  0
  1  2  1  0
  3  1  1  0
  3  4  1  0
  3  5  2  0
  4  6  2  0
  7  4  1  0
  6  8  1  0
  9  7  2  0
  7 10  1  0
  8 11  2  0
 11  9  1  0
 11 12  1  0
  2 13  2  0
 14  2  1  0
 13 15  1  0
 16 14  2  0
 14 17  1  0
 15 18  2  0
 18 16  1  0
M  END
>  <ID>  (12) 


>  <MolWt>  (12) 
245.085207

>  <LogP>  (12) 
3.09202

>  <NumHDonors>  (12) 
2

>  <NumHAcceptors>  (12) 
2

$$$$

     RDKit          3D

 18 19  0  0  0  0  0  0  0  0999 V2000
   -0.7337    1.6816    0.0947 N   0  0  0  0  0  0  0  0  0  0  0  0
   -1.8499    1.0656   -0.4183 C   0  0  0  0  0  0  0  0  0  0  0  0
   -0.2405    1.3277    1.3288 C   0  0  0  0  0  0  0  0  0  0  0  0
    0.8271    0.2990    1.3058 C   0  0  0  0  0  0  0  0  0  0  0  0
   -0.5502    1.8938    2.3728 O   0  0  0  0  0  0  0  0  0  0  0  0
    0.5221   -0.9637    0.9515 C   0  0  0  0  0  0  0  0  0  0  0  0
    2.2256    0.6752    1.4516 C   0  0  0  0  0  0  0  0  0  0  0  0
    1.5368   -1.7809    0.3063 C   0  0  0  0  0  0  0  0  0  0  0  0
    3.1846   -0.1189    0.9442 C   0  0  0  0  0  0  0  0  0  0  0  0
    2.5319    1.8091    2.1712 O   0  0  0  0  0  0  0  0  0  0  0  0
    2.8246   -1.3772    0.2900 C   0  0  0  0  0  0  0  0  0  0  0  0
    3.9294   -2.1678   -0.3356 C   0  0  0  0  0  0  0  0  0  0  0  0
   -3.0805    1.2457    0.1010 C   0  0  0  0  0  0  0  0  0  0  0  0
   -1.6905    0.3519   -1.6783 C   0  0  0  0  0  0  0  0  0  0  0  0
   -4.2476    0.7328   -0.6009 C   0  0  0  0  0  0  0  0  0  0  0  0
   -2.7716   -0.1230   -2.3247 C   0  0  0  0  0  0  0  0  0  0  0  0
   -4.0888    0.0757   -1.7603 C   0  0  0  0  0  0  0  0  0  0  0  0
   -5.1494   -0.4236   -2.4229 F   0  0  0  0  0  0  0  0  0  0  0  0
  1  2  1  0
  3  1  1  0
  3  4  1  0
  3  5  2  0
  4  6  2  0
  7  4  1  0
  6  8  1  0
  9  7  2  0
  7 10  1  0
  8 11  2  0
 11  9  1  0
 11 12  1  0
  2 13  2  0
 14  2  1  0
 13 15  1  0
 16 14  2  0
 15 17  2  0
 17 16  1  0
 17 18  1  0
M  END
>  <ID>  (13) 


>  <MolWt>  (13) 
245.085207

>  <LogP>  (13) 
3.09202

>  <NumHDonors>  (13) 
2

>  <NumHAcceptors>  (13) 
2

$$$$

     RDKit          3D

 17 18  0  0  0  0  0  0  0  0999 V2000
    1.3044   -1.2929   -0.3336 N   0  0  0  0  0  0  0  0  0  0  0  0
    2.2929   -0.3394   -0.3074 C   0  0  0  0  0  0  0  0  0  0  0  0
    0.3764   -1.3609    0.6824 C   0  0  0  0  0  0  0  0  0  0  0  0
   -0.8860   -0.6499    0.3676 C   0  0  0  0  0  0  0  0  0  0  0  0
    0.5607   -1.9623    1.7346 O   0  0  0  0  0  0  0  0  0  0  0  0
   -1.0869    0.5408    0.9662 C   0  0  0  0  0  0  0  0  0  0  0  0
   -1.9670   -1.2840   -0.3712 C   0  0  0  0  0  0  0  0  0  0  0  0
   -2.4071    1.1494    0.9444 C   0  0  0  0  0  0  0  0  0  0  0  0
   -3.1848   -0.7095   -0.4074 C   0  0  0  0  0  0  0  0  0  0  0  0
   -1.6616   -2.4566   -1.0203 O   0  0  0  0  0  0  0  0  0  0  0  0
   -3.4245    0.5544    0.2887 C   0  0  0  0  0  0  0  0  0  0  0  0
   -4.8085    1.1235    0.2308 C   0  0  0  0  0  0  0  0  0  0  0  0
    2.3392    0.6259   -1.2446 C   0  0  0  0  0  0  0  0  0  0  0  0
    3.4443   -0.5568    0.5579 C   0  0  0  0  0  0  0  0  0  0  0  0
    3.5845    1.3295   -1.5043 C   0  0  0  0  0  0  0  0  0  0  0  0
    4.5838    0.1271    0.3474 C   0  0  0  0  0  0  0  0  0  0  0  0
    4.6637    1.0889   -0.7386 C   0  0  0  0  0  0  0  0  0  0  0  0
  1  2  1  0
  3  1  1  0
  3  4  1  0
  3  5  2  0
  4  6  2  0
  7  4  1  0
  6  8  1  0
  9  7  2  0
  7 10  1  0
  8 11  2  0
 11  9  1  0
 11 12  1  0
  2 13  2  0
 14  2  1  0
 13 15  1  0
 16 14  2  0
 15 17  2  0
 17 16  1  0
M  END
>  <ID>  (14) 


>  <MolWt>  (14) 
227.094629

>  <LogP>  (14) 
2.95292

>  <NumHDonors>  (14) 
2

>  <NumHAcceptors>  (14) 
2

$$$$

     RDKit          3D

 19 20  0  0  0  0  0  0  0  0999 V2000
    0.9183   -1.0147   -0.6575 N   0  0  0  0  0  0  0  0  0  0  0  0
    2.1147   -0.8068   -0.0101 C   0  0  0  0  0  0  0  0  0  0  0  0
    0.4222   -0.0731   -1.5328 C   0  0  0  0  0  0  0  0  0  0  0  0
   -0.8409    0.5760   -1.1010 C   0  0  0  0  0  0  0  0  0  0  0  0
    0.8872    0.1644   -2.6441 O   0  0  0  0  0  0  0  0  0  0  0  0
   -0.8646    1.2836    0.0447 C   0  0  0  0  0  0  0  0  0  0  0  0
   -2.1021    0.2027   -1.7264 C   0  0  0  0  0  0  0  0  0  0  0  0
   -2.0679    1.2595    0.8626 C   0  0  0  0  0  0  0  0  0  0  0  0
   -3.2430    0.2781   -1.0197 C   0  0  0  0  0  0  0  0  0  0  0  0
   -2.0937   -0.1783   -3.0492 O   0  0  0  0  0  0  0  0  0  0  0  0
   -3.2209    0.7713    0.3577 C   0  0  0  0  0  0  0  0  0  0  0  0
   -4.5051    0.7248    1.1258 C   0  0  0  0  0  0  0  0  0  0  0  0
    3.2950   -0.9793   -0.6391 C   0  0  0  0  0  0  0  0  0  0  0  0
    2.1029   -0.5898    1.4328 C   0  0  0  0  0  0  0  0  0  0  0  0
    4.5389   -0.9235    0.1153 C   0  0  0  0  0  0  0  0  0  0  0  0
    3.2468   -0.5425    2.1337 C   0  0  0  0  0  0  0  0  0  0  0  0
    0.9157   -0.4522    2.0585 F   0  0  0  0  0  0  0  0  0  0  0  0
    4.5048   -0.7112    1.4406 C   0  0  0  0  0  0  0  0  0  0  0  0
    5.6428   -0.6526    2.1586 F   0  0  0  0  0  0  0  0  0  0  0  0
  1  2  1  0
  3  1  1  0
  3  4  1  0
  3  5  2  0
  4  6  2  0
  7  4  1  0
  6  8  1  0
  9  7  2  0
  7 10  1  0
  8 11  2  0
 11  9  1  0
 11 12  1  0
  2 13  2  0
 14  2  1  0
 13 15  1  0
 16 14  2  0
 14 17  1  0
 15 18  2  0
 18 16  1  0
 18 19  1  0
M  END
>  <ID>  (15) 


>  <MolWt>  (15) 
263.075785

>  <LogP>  (15) 
3.23112

>  <NumHDonors>  (15) 
2

>  <NumHAcceptors>  (15) 
2

$$$$

     RDKit          3D

 21 22  0  0  0  0  0  0  0  0999 V2000
   -0.8834    0.8390   -0.6128 C   0  0  0  0  0  0  0  0  0  0  0  0
   -2.3026    0.4027   -0.7146 C   0  0  0  0  0  0  0  0  0  0  0  0
   -0.4815    1.1132    0.6688 N   0  0  0  0  0  0  0  0  0  0  0  0
   -0.1765    0.9913   -1.6036 O   0  0  0  0  0  0  0  0  0  0  0  0
   -0.2133    0.0352    1.4648 C   0  0  0  0  0  0  0  0  0  0  0  0
    1.1956   -0.4253    1.4278 C   0  0  0  0  0  0  0  0  0  0  0  0
   -1.0417   -0.4509    2.2281 O   0  0  0  0  0  0  0  0  0  0  0  0
    2.0336    0.1158    2.3339 C   0  0  0  0  0  0  0  0  0  0  0  0
    1.7419   -1.1536    0.2944 C   0  0  0  0  0  0  0  0  0  0  0  0
    3.4399    0.2754    2.0000 C   0  0  0  0  0  0  0  0  0  0  0  0
    3.0590   -1.0797    0.0225 C   0  0  0  0  0  0  0  0  0  0  0  0
    0.8499   -1.8963   -0.4397 O   0  0  0  0  0  0  0  0  0  0  0  0
    3.9436   -0.2964    0.8865 C   0  0  0  0  0  0  0  0  0  0  0  0
    5.3807   -0.1839    0.4814 C   0  0  0  0  0  0  0  0  0  0  0  0
   -2.5395   -0.7960   -1.2829 C   0  0  0  0  0  0  0  0  0  0  0  0
   -3.3965    1.3432   -0.5294 C   0  0  0  0  0  0  0  0  0  0  0  0
   -3.7942   -1.0247   -1.9936 C   0  0  0  0  0  0  0  0  0  0  0  0
   -4.5865    1.1074   -1.1119 C   0  0  0  0  0  0  0  0  0  0  0  0
   -3.1385    2.4187    0.2868 O   0  0  0  0  0  0  0  0  0  0  0  0
   -4.0628   -2.7532   -3.0848 I   0  0  0  0  0  0  0  0  0  0  0  0
   -4.7733   -0.0995   -1.9071 C   0  0  0  0  0  0  0  0  0  0  0  0
  1  2  1  0
  1  3  1  0
  1  4  2  0
  5  3  1  0
  5  6  1  0
  5  7  2  0
  6  8  2  0
  9  6  1  0
  8 10  1  0
 11  9  2  0
  9 12  1  0
 10 13  2  0
 13 11  1  0
 13 14  1  0
  2 15  2  0
 16  2  1  0
 15 17  1  0
 18 16  2  0
 16 19  1  0
 17 20  1  0
 17 21  2  0
 21 18  1  0
M  END
>  <ID>  (16) 


>  <MolWt>  (16) 
396.981106

>  <LogP>  (16) 
2.58102

>  <NumHDonors>  (16) 
3

>  <NumHAcceptors>  (16) 
4

$$$$

     RDKit          3D

 20 21  0  0  0  0  0  0  0  0999 V2000
   -1.3550   -1.3363    0.6491 C   0  0  0  0  0  0  0  0  0  0  0  0
   -2.8162   -1.0801    0.6644 C   0  0  0  0  0  0  0  0  0  0  0  0
   -0.7369   -1.0192   -0.5257 N   0  0  0  0  0  0  0  0  0  0  0  0
   -0.7817   -1.8801    1.5861 O   0  0  0  0  0  0  0  0  0  0  0  0
   -0.1829    0.2315   -0.6013 C   0  0  0  0  0  0  0  0  0  0  0  0
    1.1980    0.3171   -0.0470 C   0  0  0  0  0  0  0  0  0  0  0  0
   -0.7464    1.1946   -1.1103 O   0  0  0  0  0  0  0  0  0  0  0  0
    1.4569    1.3115    0.8244 C   0  0  0  0  0  0  0  0  0  0  0  0
    2.3023   -0.4438   -0.6162 C   0  0  0  0  0  0  0  0  0  0  0  0
    2.8227    1.7779    1.0021 C   0  0  0  0  0  0  0  0  0  0  0  0
    3.5729   -0.0512   -0.4040 C   0  0  0  0  0  0  0  0  0  0  0  0
    1.9602   -1.5757   -1.3214 O   0  0  0  0  0  0  0  0  0  0  0  0
    3.8485    1.1317    0.4111 C   0  0  0  0  0  0  0  0  0  0  0  0
    5.2774    1.5576    0.5519 C   0  0  0  0  0  0  0  0  0  0  0  0
   -3.5868   -1.9966    0.0428 C   0  0  0  0  0  0  0  0  0  0  0  0
   -3.3714    0.2351    0.9714 C   0  0  0  0  0  0  0  0  0  0  0  0
   -4.7407   -1.5471   -0.7178 C   0  0  0  0  0  0  0  0  0  0  0  0
   -4.5081    0.6171    0.3538 C   0  0  0  0  0  0  0  0  0  0  0  0
   -2.5458    1.3051    2.2572 Br  0  0  0  0  0  0  0  0  0  0  0  0
   -5.1792   -0.2838   -0.5722 C   0  0  0  0  0  0  0  0  0  0  0  0
  1  2  1  0
  1  3  1  0
  1  4  2  0
  5  3  1  0
  5  6  1  0
  5  7  2  0
  6  8  2  0
  9  6  1  0
  8 10  1  0
 11  9  2  0
  9 12  1  0
 10 13  2  0
 13 11  1  0
 13 14  1  0
  2 15  2  0
 16  2  1  0
 15 17  1  0
 18 16  2  0
 16 19  1  0
 17 20  2  0
 20 18  1  0
M  END
>  <ID>  (17) 


>  <MolWt>  (17) 
333.000055

>  <LogP>  (17) 
3.03332

>  <NumHDonors>  (17) 
2

>  <NumHAcceptors>  (17) 
3

$$$$

     RDKit          3D

 20 21  0  0  0  0  0  0  0  0999 V2000
    0.9764    0.0492    1.0641 C   0  0  0  0  0  0  0  0  0  0  0  0
    2.3821   -0.3529    0.7948 C   0  0  0  0  0  0  0  0  0  0  0  0
    0.3133    0.5142   -0.0384 N   0  0  0  0  0  0  0  0  0  0  0  0
    0.5056    0.0065    2.1950 O   0  0  0  0  0  0  0  0  0  0  0  0
   -0.7126   -0.2823   -0.4567 C   0  0  0  0  0  0  0  0  0  0  0  0
   -2.0463    0.3042   -0.1882 C   0  0  0  0  0  0  0  0  0  0  0  0
   -0.5527   -1.3487   -1.0394 O   0  0  0  0  0  0  0  0  0  0  0  0
   -2.7362   -0.1920    0.8574 C   0  0  0  0  0  0  0  0  0  0  0  0
   -2.7315    1.1095   -1.1869 C   0  0  0  0  0  0  0  0  0  0  0  0
   -4.1893   -0.1391    0.8506 C   0  0  0  0  0  0  0  0  0  0  0  0
   -4.0742    1.2150   -1.1602 C   0  0  0  0  0  0  0  0  0  0  0  0
   -1.9331    1.7498   -2.1046 O   0  0  0  0  0  0  0  0  0  0  0  0
   -4.8436    0.5350   -0.1176 C   0  0  0  0  0  0  0  0  0  0  0  0
   -6.3362    0.6358   -0.1828 C   0  0  0  0  0  0  0  0  0  0  0  0
    2.6074   -1.5360    0.1927 C   0  0  0  0  0  0  0  0  0  0  0  0
    3.4615    0.6144    0.9187 C   0  0  0  0  0  0  0  0  0  0  0  0
    3.8311   -1.7291   -0.5684 C   0  0  0  0  0  0  0  0  0  0  0  0
    4.6227    0.4041    0.2726 C   0  0  0  0  0  0  0  0  0  0  0  0
    4.8080   -0.7990   -0.5369 C   0  0  0  0  0  0  0  0  0  0  0  0
    6.0980   -0.9355   -1.2850 C   0  0  0  0  0  0  0  0  0  0  0  0
  1  2  1  0
  1  3  1  0
  1  4  2  0
  5  3  1  0
  5  6  1  0
  5  7  2  0
  6  8  2  0
  9  6  1  0
  8 10  1  0
 11  9  2  0
  9 12  1  0
 10 13  2  0
 13 11  1  0
 13 14  1  0
  2 15  2  0
 16  2  1  0
 15 17  1  0
 18 16  2  0
 17 19  2  0
 19 18  1  0
 19 20  1  0
M  END
>  <ID>  (18) 


>  <MolWt>  (18) 
269.105193

>  <LogP>  (18) 
2.57924

>  <NumHDonors>  (18) 
2

>  <NumHAcceptors>  (18) 
3

$$$$

     RDKit          3D

 20 21  0  0  0  0  0  0  0  0999 V2000
   -1.5211   -2.4014    0.5220 C   0  0  0  0  0  0  0  0  0  0  0  0
   -2.3250   -1.1677    0.7114 C   0  0  0  0  0  0  0  0  0  0  0  0
   -0.8660   -2.4590   -0.6791 N   0  0  0  0  0  0  0  0  0  0  0  0
   -1.5401   -3.3164    1.3360 O   0  0  0  0  0  0  0  0  0  0  0  0
    0.4845   -2.2356   -0.6755 C   0  0  0  0  0  0  0  0  0  0  0  0
    0.8812   -0.8101   -0.5363 C   0  0  0  0  0  0  0  0  0  0  0  0
    1.2946   -3.1272   -0.9062 O   0  0  0  0  0  0  0  0  0  0  0  0
    0.8793   -0.0676   -1.6618 C   0  0  0  0  0  0  0  0  0  0  0  0
    1.6479   -0.3578    0.6151 C   0  0  0  0  0  0  0  0  0  0  0  0
    1.8385    1.0149   -1.8140 C   0  0  0  0  0  0  0  0  0  0  0  0
    2.4911    0.6855    0.4989 C   0  0  0  0  0  0  0  0  0  0  0  0
    1.4279   -1.0323    1.7900 O   0  0  0  0  0  0  0  0  0  0  0  0
    2.6224    1.3830   -0.7799 C   0  0  0  0  0  0  0  0  0  0  0  0
    3.6313    2.4864   -0.8647 C   0  0  0  0  0  0  0  0  0  0  0  0
   -1.8494   -0.2617    1.5890 C   0  0  0  0  0  0  0  0  0  0  0  0
   -3.3939   -0.7839   -0.2017 C   0  0  0  0  0  0  0  0  0  0  0  0
   -2.0978    1.1515    1.3574 C   0  0  0  0  0  0  0  0  0  0  0  0
   -3.7036    0.5190   -0.3472 C   0  0  0  0  0  0  0  0  0  0  0  0
   -4.2757   -1.9948   -1.0533 Cl  0  0  0  0  0  0  0  0  0  0  0  0
   -2.9890    1.5271    0.4222 C   0  0  0  0  0  0  0  0  0  0  0  0
  1  2  1  0
  1  3  1  0
  1  4  2  0
  5  3  1  0
  5  6  1  0
  5  7  2  0
  6  8  2  0
  9  6  1  0
  8 10  1  0
 11  9  2  0
  9 12  1  0
 10 13  2  0
 13 11  1  0
 13 14  1  0
  2 15  2  0
 16  2  1  0
 15 17  1  0
 18 16  2  0
 16 19  1  0
 17 20  2  0
 20 18  1  0
M  END
>  <ID>  (19) 


>  <MolWt>  (19) 
289.050571

>  <LogP>  (19) 
2.92422

>  <NumHDonors>  (19) 
2

>  <NumHAcceptors>  (19) 
3

$$$$

     RDKit          3D

 21 22  0  0  0  0  0  0  0  0999 V2000
    1.6543   -1.0143    0.6671 C   0  0  0  0  0  0  0  0  0  0  0  0
    1.8996   -0.7832   -0.7787 C   0  0  0  0  0  0  0  0  0  0  0  0
    0.7030   -1.9789    0.8763 N   0  0  0  0  0  0  0  0  0  0  0  0
    2.2770   -0.4267    1.5405 O   0  0  0  0  0  0  0  0  0  0  0  0
   -0.2130   -1.7730    1.8699 C   0  0  0  0  0  0  0  0  0  0  0  0
   -1.1995   -0.6901    1.6408 C   0  0  0  0  0  0  0  0  0  0  0  0
   -0.3247   -2.5349    2.8256 O   0  0  0  0  0  0  0  0  0  0  0  0
   -0.8596    0.5703    1.9730 C   0  0  0  0  0  0  0  0  0  0  0  0
   -2.3924   -0.9158    0.8388 C   0  0  0  0  0  0  0  0  0  0  0  0
   -1.4010    1.6756    1.1962 C   0  0  0  0  0  0  0  0  0  0  0  0
   -2.9562    0.1131    0.1828 C   0  0  0  0  0  0  0  0  0  0  0  0
   -2.9474   -2.1745    0.8193 O   0  0  0  0  0  0  0  0  0  0  0  0
   -2.4060    1.4619    0.3203 C   0  0  0  0  0  0  0  0  0  0  0  0
   -3.0211    2.5442   -0.5113 C   0  0  0  0  0  0  0  0  0  0  0  0
    1.3221    0.3067   -1.3246 C   0  0  0  0  0  0  0  0  0  0  0  0
    3.0402   -1.3985   -1.4472 C   0  0  0  0  0  0  0  0  0  0  0  0
    2.0289    1.0489   -2.3580 C   0  0  0  0  0  0  0  0  0  0  0  0
    3.6481   -0.7566   -2.4631 C   0  0  0  0  0  0  0  0  0  0  0  0
    3.5590   -2.9709   -0.9671 Cl  0  0  0  0  0  0  0  0  0  0  0  0
    3.1480    0.5364   -2.9015 C   0  0  0  0  0  0  0  0  0  0  0  0
    4.0012    1.3710   -4.1403 Cl  0  0  0  0  0  0  0  0  0  0  0  0
  1  2  1  0
  1  3  1  0
  1  4  2  0
  5  3  1  0
  5  6  1  0
  5  7  2  0
  6  8  2  0
  9  6  1  0
  8 10  1  0
 11  9  2  0
  9 12  1  0
 10 13  2  0
 13 11  1  0
 13 14  1  0
  2 15  2  0
 16  2  1  0
 15 17  1  0
 18 16  2  0
 16 19  1  0
 17 20  2  0
 20 18  1  0
 20 21  1  0
M  END
>  <ID>  (20) 


>  <MolWt>  (20) 
323.011599

>  <LogP>  (20) 
3.57762

>  <NumHDonors>  (20) 
2

>  <NumHAcceptors>  (20) 
3

$$$$

     RDKit          3D

 20 21  0  0  0  0  0  0  0  0999 V2000
   -1.1736   -0.7527   -2.4786 C   0  0  0  0  0  0  0  0  0  0  0  0
   -2.1272    0.0506   -1.6728 C   0  0  0  0  0  0  0  0  0  0  0  0
    0.0519   -0.9407   -1.9046 N   0  0  0  0  0  0  0  0  0  0  0  0
   -1.4405   -1.1366   -3.6109 O   0  0  0  0  0  0  0  0  0  0  0  0
    0.1102   -1.7909   -0.8340 C   0  0  0  0  0  0  0  0  0  0  0  0
    0.8745   -1.2521    0.3165 C   0  0  0  0  0  0  0  0  0  0  0  0
   -0.3093   -2.9422   -0.8161 O   0  0  0  0  0  0  0  0  0  0  0  0
    0.4040   -0.1704    0.9668 C   0  0  0  0  0  0  0  0  0  0  0  0
    2.2656   -1.6374    0.5077 C   0  0  0  0  0  0  0  0  0  0  0  0
    1.3467    0.8400    1.4228 C   0  0  0  0  0  0  0  0  0  0  0  0
    3.1332   -0.7556    1.0335 C   0  0  0  0  0  0  0  0  0  0  0  0
    2.6429   -2.9196    0.1806 O   0  0  0  0  0  0  0  0  0  0  0  0
    2.6686    0.5671    1.4541 C   0  0  0  0  0  0  0  0  0  0  0  0
    3.7027    1.5414    1.9262 C   0  0  0  0  0  0  0  0  0  0  0  0
   -3.0648   -0.6025   -0.9586 C   0  0  0  0  0  0  0  0  0  0  0  0
   -1.9723    1.4917   -1.5333 C   0  0  0  0  0  0  0  0  0  0  0  0
   -3.7624    0.0941    0.1126 C   0  0  0  0  0  0  0  0  0  0  0  0
   -2.6611    2.1456   -0.5789 C   0  0  0  0  0  0  0  0  0  0  0  0
   -3.5671    1.4135    0.2925 C   0  0  0  0  0  0  0  0  0  0  0  0
   -4.3762    2.2735    1.5433 Cl  0  0  0  0  0  0  0  0  0  0  0  0
  1  2  1  0
  1  3  1  0
  1  4  2  0
  5  3  1  0
  5  6  1  0
  5  7  2  0
  6  8  2  0
  9  6  1  0
  8 10  1  0
 11  9  2  0
  9 12  1  0
 10 13  2  0
 13 11  1  0
 13 14  1  0
  2 15  2  0
 16  2  1  0
 15 17  1  0
 18 16  2  0
 17 19  2  0
 19 18  1  0
 19 20  1  0
M  END
>  <ID>  (21) 


>  <MolWt>  (21) 
289.050571

>  <LogP>  (21) 
2.92422

>  <NumHDonors>  (21) 
2

>  <NumHAcceptors>  (21) 
3

$$$$

     RDKit          3D

 22 23  0  0  0  0  0  0  0  0999 V2000
   -0.6134    1.2732   -0.8166 C   0  0  0  0  0  0  0  0  0  0  0  0
   -1.9080    0.7680   -0.2861 C   0  0  0  0  0  0  0  0  0  0  0  0
   -0.1744    0.6200   -1.9404 N   0  0  0  0  0  0  0  0  0  0  0  0
   -0.0261    2.2187   -0.3044 O   0  0  0  0  0  0  0  0  0  0  0  0
    0.2394   -0.6708   -1.7896 C   0  0  0  0  0  0  0  0  0  0  0  0
    1.5022   -0.8837   -1.0386 C   0  0  0  0  0  0  0  0  0  0  0  0
   -0.4013   -1.6310   -2.2113 O   0  0  0  0  0  0  0  0  0  0  0  0
    2.5972   -0.1630   -1.3497 C   0  0  0  0  0  0  0  0  0  0  0  0
    1.4770   -1.6293    0.2142 C   0  0  0  0  0  0  0  0  0  0  0  0
    3.5253    0.2051   -0.2911 C   0  0  0  0  0  0  0  0  0  0  0  0
    2.3909   -1.3693    1.1641 C   0  0  0  0  0  0  0  0  0  0  0  0
    0.5255   -2.6122    0.3771 O   0  0  0  0  0  0  0  0  0  0  0  0
    3.4296   -0.3680    0.9271 C   0  0  0  0  0  0  0  0  0  0  0  0
    4.3460   -0.0441    2.0654 C   0  0  0  0  0  0  0  0  0  0  0  0
   -1.9278    0.3445    0.9931 C   0  0  0  0  0  0  0  0  0  0  0  0
   -3.1547    0.9678   -1.0096 C   0  0  0  0  0  0  0  0  0  0  0  0
   -3.1918    0.2814    1.7115 C   0  0  0  0  0  0  0  0  0  0  0  0
   -4.3339    0.8656   -0.3592 C   0  0  0  0  0  0  0  0  0  0  0  0
   -3.0276    1.2242   -2.3591 O   0  0  0  0  0  0  0  0  0  0  0  0
   -3.1478   -0.1685    3.5193 Br  0  0  0  0  0  0  0  0  0  0  0  0
   -4.3441    0.5345    1.0608 C   0  0  0  0  0  0  0  0  0  0  0  0
   -5.9801    1.1017   -1.2066 Br  0  0  0  0  0  0  0  0  0  0  0  0
  1  2  1  0
  1  3  1  0
  1  4  2  0
  5  3  1  0
  5  6  1  0
  5  7  2  0
  6  8  2  0
  9  6  1  0
  8 10  1  0
 11  9  2  0
  9 12  1  0
 10 13  2  0
 13 11  1  0
 13 14  1  0
  2 15  2  0
 16  2  1  0
 15 17  1  0
 18 16  2  0
 16 19  1  0
 17 20  1  0
 17 21  2  0
 21 18  1  0
 18 22  1  0
M  END
>  <ID>  (22) 


>  <MolWt>  (22) 
426.905482

>  <LogP>  (22) 
3.50142

>  <NumHDonors>  (22) 
3

>  <NumHAcceptors>  (22) 
4

$$$$

     RDKit          3D

 20 21  0  0  0  0  0  0  0  0999 V2000
    1.4581    0.7818    2.3462 C   0  0  0  0  0  0  0  0  0  0  0  0
    2.3007    0.9234    1.1323 C   0  0  0  0  0  0  0  0  0  0  0  0
    0.1819    0.3510    2.1167 N   0  0  0  0  0  0  0  0  0  0  0  0
    1.8544    1.1155    3.4563 O   0  0  0  0  0  0  0  0  0  0  0  0
    0.0264   -0.9594    1.7548 C   0  0  0  0  0  0  0  0  0  0  0  0
   -0.8703   -1.1563    0.5906 C   0  0  0  0  0  0  0  0  0  0  0  0
    0.4658   -1.9242    2.3698 O   0  0  0  0  0  0  0  0  0  0  0  0
   -0.5004   -0.6736   -0.6113 C   0  0  0  0  0  0  0  0  0  0  0  0
   -2.2632   -1.5239    0.8020 C   0  0  0  0  0  0  0  0  0  0  0  0
   -1.5125   -0.0779   -1.4706 C   0  0  0  0  0  0  0  0  0  0  0  0
   -3.2048   -1.0767   -0.0467 C   0  0  0  0  0  0  0  0  0  0  0  0
   -2.5697   -2.3616    1.8498 O   0  0  0  0  0  0  0  0  0  0  0  0
   -2.8226   -0.2641   -1.2024 C   0  0  0  0  0  0  0  0  0  0  0  0
   -3.9264    0.2967   -2.0442 C   0  0  0  0  0  0  0  0  0  0  0  0
    3.1665   -0.0659    0.8397 C   0  0  0  0  0  0  0  0  0  0  0  0
    2.0957    2.0153    0.1927 C   0  0  0  0  0  0  0  0  0  0  0  0
    3.7079   -0.1670   -0.5075 C   0  0  0  0  0  0  0  0  0  0  0  0
    2.6466    1.9504   -1.0340 C   0  0  0  0  0  0  0  0  0  0  0  0
    3.4599    0.8003   -1.4124 C   0  0  0  0  0  0  0  0  0  0  0  0
    4.1258    0.7343   -3.1510 Br  0  0  0  0  0  0  0  0  0  0  0  0
  1  2  1  0
  1  3  1  0
  1  4  2  0
  5  3  1  0
  5  6  1  0
  5  7  2  0
  6  8  2  0
  9  6  1  0
  8 10  1  0
 11  9  2  0
  9 12  1  0
 10 13  2  0
 13 11  1  0
 13 14  1  0
  2 15  2  0
 16  2  1  0
 15 17  1  0
 18 16  2  0
 17 19  2  0
 19 18  1  0
 19 20  1  0
M  END
>  <ID>  (23) 


>  <MolWt>  (23) 
333.000055

>  <LogP>  (23) 
3.03332

>  <NumHDonors>  (23) 
2

>  <NumHAcceptors>  (23) 
3

$$$$

     RDKit          3D

 20 21  0  0  0  0  0  0  0  0999 V2000
    1.5083   -1.8089    1.6241 C   0  0  0  0  0  0  0  0  0  0  0  0
    2.1141   -0.7545    0.7758 C   0  0  0  0  0  0  0  0  0  0  0  0
    0.2960   -2.2573    1.1754 N   0  0  0  0  0  0  0  0  0  0  0  0
    2.0736   -2.2570    2.6159 O   0  0  0  0  0  0  0  0  0  0  0  0
   -0.8136   -1.6313    1.6709 C   0  0  0  0  0  0  0  0  0  0  0  0
   -1.3906   -0.6227    0.7478 C   0  0  0  0  0  0  0  0  0  0  0  0
   -1.3210   -1.8887    2.7576 O   0  0  0  0  0  0  0  0  0  0  0  0
   -1.3520    0.6647    1.1412 C   0  0  0  0  0  0  0  0  0  0  0  0
   -2.0651   -0.9847   -0.4883 C   0  0  0  0  0  0  0  0  0  0  0  0
   -1.9238    1.6977    0.2967 C   0  0  0  0  0  0  0  0  0  0  0  0
   -2.6074   -0.0276   -1.2629 C   0  0  0  0  0  0  0  0  0  0  0  0
   -2.0968   -2.3233   -0.7991 O   0  0  0  0  0  0  0  0  0  0  0  0
   -2.5343    1.3773   -0.8623 C   0  0  0  0  0  0  0  0  0  0  0  0
   -3.1605    2.3869   -1.7754 C   0  0  0  0  0  0  0  0  0  0  0  0
    2.2726    0.4707    1.3195 C   0  0  0  0  0  0  0  0  0  0  0  0
    2.6200   -1.0269   -0.5641 C   0  0  0  0  0  0  0  0  0  0  0  0
    2.8040    1.5567    0.5117 C   0  0  0  0  0  0  0  0  0  0  0  0
    3.1316   -0.0250   -1.3024 C   0  0  0  0  0  0  0  0  0  0  0  0
    2.5329   -2.3236   -1.0052 O   0  0  0  0  0  0  0  0  0  0  0  0
    3.2141    1.3193   -0.7485 C   0  0  0  0  0  0  0  0  0  0  0  0
  1  2  1  0
  1  3  1  0
  1  4  2  0
  5  3  1  0
  5  6  1  0
  5  7  2  0
  6  8  2  0
  9  6  1  0
  8 10  1  0
 11  9  2  0
  9 12  1  0
 10 13  2  0
 13 11  1  0
 13 14  1  0
  2 15  2  0
 16  2  1  0
 15 17  1  0
 18 16  2  0
 16 19  1  0
 17 20  2  0
 20 18  1  0
M  END
>  <ID>  (24) 


>  <MolWt>  (24) 
271.084458

>  <LogP>  (24) 
1.97642

>  <NumHDonors>  (24) 
3

>  <NumHAcceptors>  (24) 
4

$$$$

     RDKit          3D

 21 22  0  0  0  0  0  0  0  0999 V2000
    1.0300   -1.8514    0.6044 C   0  0  0  0  0  0  0  0  0  0  0  0
    1.8055   -0.5874    0.5462 C   0  0  0  0  0  0  0  0  0  0  0  0
    0.4081   -2.1803   -0.5672 N   0  0  0  0  0  0  0  0  0  0  0  0
    1.0681   -2.5481    1.6134 O   0  0  0  0  0  0  0  0  0  0  0  0
   -0.8947   -2.5867   -0.4841 C   0  0  0  0  0  0  0  0  0  0  0  0
   -1.8664   -1.5115   -0.1706 C   0  0  0  0  0  0  0  0  0  0  0  0
   -1.2389   -3.7441   -0.6967 O   0  0  0  0  0  0  0  0  0  0  0  0
   -2.3273   -1.4397    1.0942 C   0  0  0  0  0  0  0  0  0  0  0  0
   -2.3138   -0.5474   -1.1637 C   0  0  0  0  0  0  0  0  0  0  0  0
   -3.1595   -0.3181    1.4965 C   0  0  0  0  0  0  0  0  0  0  0  0
   -3.1228    0.4662   -0.7999 C   0  0  0  0  0  0  0  0  0  0  0  0
   -1.8620   -0.7357   -2.4465 O   0  0  0  0  0  0  0  0  0  0  0  0
   -3.5550    0.6004    0.5911 C   0  0  0  0  0  0  0  0  0  0  0  0
   -4.4325    1.7656    0.9319 C   0  0  0  0  0  0  0  0  0  0  0  0
    1.2064    0.5524    0.1495 C   0  0  0  0  0  0  0  0  0  0  0  0
    3.2595   -0.6207    0.6429 C   0  0  0  0  0  0  0  0  0  0  0  0
    1.9772    1.5258   -0.6098 C   0  0  0  0  0  0  0  0  0  0  0  0
    3.9884    0.3373    0.0447 C   0  0  0  0  0  0  0  0  0  0  0  0
    3.8487   -1.6169    1.3898 O   0  0  0  0  0  0  0  0  0  0  0  0
    3.3224    1.4272   -0.6684 C   0  0  0  0  0  0  0  0  0  0  0  0
    4.1904    2.3932   -1.4134 C   0  0  0  0  0  0  0  0  0  0  0  0
  1  2  1  0
  1  3  1  0
  1  4  2  0
  5  3  1  0
  5  6  1  0
  5  7  2  0
  6  8  2  0
  9  6  1  0
  8 10  1  0
 11  9  2  0
  9 12  1  0
 10 13  2  0
 13 11  1  0
 13 14  1  0
  2 15  2  0
 16  2  1  0
 15 17  1  0
 18 16  2  0
 16 19  1  0
 17 20  2  0
 20 18  1  0
 20 21  1  0
M  END
>  <ID>  (25) 


>  <MolWt>  (25) 
285.100108

>  <LogP>  (25) 
2.28484

>  <NumHDonors>  (25) 
3

>  <NumHAcceptors>  (25) 
4

$$$$

     RDKit          3D

 20 21  0  0  0  0  0  0  0  0999 V2000
    2.0605   -1.4144   -1.0961 C   0  0  0  0  0  0  0  0  0  0  0  0
    2.4830   -0.4034   -0.0994 C   0  0  0  0  0  0  0  0  0  0  0  0
    1.0603   -2.2395   -0.6593 N   0  0  0  0  0  0  0  0  0  0  0  0
    2.6338   -1.5519   -2.1700 O   0  0  0  0  0  0  0  0  0  0  0  0
   -0.2130   -1.9491   -1.0700 C   0  0  0  0  0  0  0  0  0  0  0  0
   -0.8904   -0.8920   -0.2743 C   0  0  0  0  0  0  0  0  0  0  0  0
   -0.7888   -2.5971   -1.9373 O   0  0  0  0  0  0  0  0  0  0  0  0
   -1.4508   -1.2800    0.8896 C   0  0  0  0  0  0  0  0  0  0  0  0
   -1.3375    0.3424   -0.9024 C   0  0  0  0  0  0  0  0  0  0  0  0
   -2.6671   -0.6337    1.3569 C   0  0  0  0  0  0  0  0  0  0  0  0
   -2.4239    0.9851   -0.4331 C   0  0  0  0  0  0  0  0  0  0  0  0
   -0.5794    0.7954   -1.9533 O   0  0  0  0  0  0  0  0  0  0  0  0
   -3.1454    0.4575    0.7249 C   0  0  0  0  0  0  0  0  0  0  0  0
   -4.3891    1.1752    1.1508 C   0  0  0  0  0  0  0  0  0  0  0  0
    2.3741    0.9024   -0.4171 C   0  0  0  0  0  0  0  0  0  0  0  0
    3.1164   -0.7890    1.1464 C   0  0  0  0  0  0  0  0  0  0  0  0
    2.7420    1.9154    0.5609 C   0  0  0  0  0  0  0  0  0  0  0  0
    3.4979    0.1440    2.0349 C   0  0  0  0  0  0  0  0  0  0  0  0
    3.3099   -2.0977    1.4074 F   0  0  0  0  0  0  0  0  0  0  0  0
    3.2840    1.5512    1.7376 C   0  0  0  0  0  0  0  0  0  0  0  0
  1  2  1  0
  1  3  1  0
  1  4  2  0
  5  3  1  0
  5  6  1  0
  5  7  2  0
  6  8  2  0
  9  6  1  0
  8 10  1  0
 11  9  2  0
  9 12  1  0
 10 13  2  0
 13 11  1  0
 13 14  1  0
  2 15  2  0
 16  2  1  0
 15 17  1  0
 18 16  2  0
 16 19  1  0
 17 20  2  0
 20 18  1  0
M  END
>  <ID>  (26) 


>  <MolWt>  (26) 
273.080121

>  <LogP>  (26) 
2.40992

>  <NumHDonors>  (26) 
2

>  <NumHAcceptors>  (26) 
3

$$$$

     RDKit          3D

 20 21  0  0  0  0  0  0  0  0999 V2000
    1.4350   -0.3168    1.0159 C   0  0  0  0  0  0  0  0  0  0  0  0
    2.8898   -0.4369    0.7448 C   0  0  0  0  0  0  0  0  0  0  0  0
    0.6590   -0.9450    0.0886 N   0  0  0  0  0  0  0  0  0  0  0  0
    0.9975    0.2381    2.0163 O   0  0  0  0  0  0  0  0  0  0  0  0
   -0.0038   -0.1107   -0.7708 C   0  0  0  0  0  0  0  0  0  0  0  0
   -1.3770    0.2501   -0.3190 C   0  0  0  0  0  0  0  0  0  0  0  0
    0.4704    0.2981   -1.8256 O   0  0  0  0  0  0  0  0  0  0  0  0
   -1.7012    1.5576   -0.3059 C   0  0  0  0  0  0  0  0  0  0  0  0
   -2.4312   -0.7476   -0.2054 C   0  0  0  0  0  0  0  0  0  0  0  0
   -3.0850    1.9545   -0.5116 C   0  0  0  0  0  0  0  0  0  0  0  0
   -3.7220   -0.3788   -0.3135 C   0  0  0  0  0  0  0  0  0  0  0  0
   -2.0213   -2.0336    0.0627 O   0  0  0  0  0  0  0  0  0  0  0  0
   -4.0659    1.0283   -0.5222 C   0  0  0  0  0  0  0  0  0  0  0  0
   -5.5109    1.3646   -0.7257 C   0  0  0  0  0  0  0  0  0  0  0  0
    3.6093   -1.2816    1.5119 C   0  0  0  0  0  0  0  0  0  0  0  0
    3.5428    0.3554   -0.2907 C   0  0  0  0  0  0  0  0  0  0  0  0
    5.0292   -1.4620    1.2456 C   0  0  0  0  0  0  0  0  0  0  0  0
    4.8605    0.1998   -0.5177 C   0  0  0  0  0  0  0  0  0  0  0  0
    5.6187   -0.7453    0.2752 C   0  0  0  0  0  0  0  0  0  0  0  0
    6.9335   -0.8863    0.0180 F   0  0  0  0  0  0  0  0  0  0  0  0
  1  2  1  0
  1  3  1  0
  1  4  2  0
  5  3  1  0
  5  6  1  0
  5  7  2  0
  6  8  2  0
  9  6  1  0
  8 10  1  0
 11  9  2  0
  9 12  1  0
 10 13  2  0
 13 11  1  0
 13 14  1  0
  2 15  2  0
 16  2  1  0
 15 17  1  0
 18 16  2  0
 17 19  2  0
 19 18  1  0
 19 20  1  0
M  END
>  <ID>  (27) 


>  <MolWt>  (27) 
273.080121

>  <LogP>  (27) 
2.40992

>  <NumHDonors>  (27) 
2

>  <NumHAcceptors>  (27) 
3

$$$$

     RDKit          3D

 19 20  0  0  0  0  0  0  0  0999 V2000
    1.6729   -0.9975    0.2358 C   0  0  0  0  0  0  0  0  0  0  0  0
    3.0871   -0.6045    0.0007 C   0  0  0  0  0  0  0  0  0  0  0  0
    0.8517    0.0523    0.5433 N   0  0  0  0  0  0  0  0  0  0  0  0
    1.3185   -2.1702    0.1928 O   0  0  0  0  0  0  0  0  0  0  0  0
   -0.0756    0.3443   -0.4141 C   0  0  0  0  0  0  0  0  0  0  0  0
   -1.4528   -0.0329   -0.0193 C   0  0  0  0  0  0  0  0  0  0  0  0
    0.1902    0.9060   -1.4706 O   0  0  0  0  0  0  0  0  0  0  0  0
   -1.9614   -1.1562   -0.5624 C   0  0  0  0  0  0  0  0  0  0  0  0
   -2.3403    0.9206    0.6276 C   0  0  0  0  0  0  0  0  0  0  0  0
   -3.4002   -1.2882   -0.7263 C   0  0  0  0  0  0  0  0  0  0  0  0
   -3.6753    0.7677    0.5339 C   0  0  0  0  0  0  0  0  0  0  0  0
   -1.7350    1.9316    1.3355 O   0  0  0  0  0  0  0  0  0  0  0  0
   -4.2345   -0.3661   -0.2032 C   0  0  0  0  0  0  0  0  0  0  0  0
   -5.7247   -0.4423   -0.3283 C   0  0  0  0  0  0  0  0  0  0  0  0
    3.9378   -0.7021    1.0411 C   0  0  0  0  0  0  0  0  0  0  0  0
    3.4799    0.1243   -1.1969 C   0  0  0  0  0  0  0  0  0  0  0  0
    5.1379    0.1191    1.0628 C   0  0  0  0  0  0  0  0  0  0  0  0
    4.6218    0.8356   -1.1978 C   0  0  0  0  0  0  0  0  0  0  0  0
    5.4663    0.8553   -0.0145 C   0  0  0  0  0  0  0  0  0  0  0  0
  1  2  1  0
  1  3  1  0
  1  4  2  0
  5  3  1  0
  5  6  1  0
  5  7  2  0
  6  8  2  0
  9  6  1  0
  8 10  1  0
 11  9  2  0
  9 12  1  0
 10 13  2  0
 13 11  1  0
 13 14  1  0
  2 15  2  0
 16  2  1  0
 15 17  1  0
 18 16  2  0
 17 19  2  0
 19 18  1  0
M  END
>  <ID>  (28) 


>  <MolWt>  (28) 
255.089543

>  <LogP>  (28) 
2.27082

>  <NumHDonors>  (28) 
2

>  <NumHAcceptors>  (28) 
3

$$$$

     RDKit          3D

 21 22  0  0  0  0  0  0  0  0999 V2000
   -0.9758   -0.9879   -0.7603 C   0  0  0  0  0  0  0  0  0  0  0  0
   -2.4309   -0.7914   -0.5399 C   0  0  0  0  0  0  0  0  0  0  0  0
   -0.2860   -1.4000    0.3500 N   0  0  0  0  0  0  0  0  0  0  0  0
   -0.4696   -0.8482   -1.8683 O   0  0  0  0  0  0  0  0  0  0  0  0
   -0.0582   -0.4612    1.3174 C   0  0  0  0  0  0  0  0  0  0  0  0
    1.2418    0.2417    1.2025 C   0  0  0  0  0  0  0  0  0  0  0  0
   -0.8217   -0.2852    2.2607 O   0  0  0  0  0  0  0  0  0  0  0  0
    2.2747   -0.2891    1.8862 C   0  0  0  0  0  0  0  0  0  0  0  0
    1.5032    1.2145    0.1544 C   0  0  0  0  0  0  0  0  0  0  0  0
    3.6224   -0.1655    1.3547 C   0  0  0  0  0  0  0  0  0  0  0  0
    2.7610    1.3974   -0.2913 C   0  0  0  0  0  0  0  0  0  0  0  0
    0.4153    1.9051   -0.3196 O   0  0  0  0  0  0  0  0  0  0  0  0
    3.8663    0.6433    0.3024 C   0  0  0  0  0  0  0  0  0  0  0  0
    5.2261    0.8268   -0.2964 C   0  0  0  0  0  0  0  0  0  0  0  0
   -2.9254    0.4633   -0.5690 C   0  0  0  0  0  0  0  0  0  0  0  0
   -3.3349   -1.9262   -0.5590 C   0  0  0  0  0  0  0  0  0  0  0  0
   -4.3570    0.6647   -0.7482 C   0  0  0  0  0  0  0  0  0  0  0  0
   -4.6588   -1.7449   -0.6906 C   0  0  0  0  0  0  0  0  0  0  0  0
   -2.8233   -3.1653   -0.4129 F   0  0  0  0  0  0  0  0  0  0  0  0
   -5.1767   -0.3980   -0.8063 C   0  0  0  0  0  0  0  0  0  0  0  0
   -6.5047   -0.2357   -0.9627 F   0  0  0  0  0  0  0  0  0  0  0  0
  1  2  1  0
  1  3  1  0
  1  4  2  0
  5  3  1  0
  5  6  1  0
  5  7  2  0
  6  8  2  0
  9  6  1  0
  8 10  1  0
 11  9  2  0
  9 12  1  0
 10 13  2  0
 13 11  1  0
 13 14  1  0
  2 15  2  0
 16  2  1  0
 15 17  1  0
 18 16  2  0
 16 19  1  0
 17 20  2  0
 20 18  1  0
 20 21  1  0
M  END
>  <ID>  (29) 


>  <MolWt>  (29) 
291.0707

>  <LogP>  (29) 
2.54902

>  <NumHDonors>  (29) 
2

>  <NumHAcceptors>  (29) 
3

$$$$

     RDKit          3D

 25 27  0  0  0  0  0  0  0  0999 V2000
    2.7172    0.1362    0.2389 C   0  0  0  0  0  0  0  0  0  0  0  0
    3.9896   -0.5761    0.3652 C   0  0  0  0  0  0  0  0  0  0  0  0
    2.5127    0.9641   -0.8113 C   0  0  0  0  0  0  0  0  0  0  0  0
    1.5756   -0.1163    1.1252 C   0  0  0  0  0  0  0  0  0  0  0  0
    1.1599    1.2576   -1.2616 C   0  0  0  0  0  0  0  0  0  0  0  0
    0.3242    0.1660    0.7179 C   0  0  0  0  0  0  0  0  0  0  0  0
    0.1073    0.7356   -0.6032 C   0  0  0  0  0  0  0  0  0  0  0  0
   -1.0217    0.3255   -1.2717 N   0  0  0  0  0  0  0  0  0  0  0  0
   -1.9583    1.2419   -1.6891 C   0  0  0  0  0  0  0  0  0  0  0  0
   -3.2573    1.1686   -0.9749 C   0  0  0  0  0  0  0  0  0  0  0  0
   -1.8233    1.9808   -2.6611 O   0  0  0  0  0  0  0  0  0  0  0  0
   -3.3009    1.2984    0.3657 C   0  0  0  0  0  0  0  0  0  0  0  0
   -4.4462    0.6993   -1.6753 C   0  0  0  0  0  0  0  0  0  0  0  0
   -4.3060    0.5585    1.1142 C   0  0  0  0  0  0  0  0  0  0  0  0
   -5.4373    0.1100   -0.9844 C   0  0  0  0  0  0  0  0  0  0  0  0
   -4.5435    0.9239   -3.0311 O   0  0  0  0  0  0  0  0  0  0  0  0
   -5.3391   -0.0240    0.4687 C   0  0  0  0  0  0  0  0  0  0  0  0
   -6.4199   -0.7932    1.1618 C   0  0  0  0  0  0  0  0  0  0  0  0
    4.1561   -1.7286   -0.3254 C   0  0  0  0  0  0  0  0  0  0  0  0
    5.1156   -0.1077    1.1839 C   0  0  0  0  0  0  0  0  0  0  0  0
    5.4707   -2.3450   -0.4697 C   0  0  0  0  0  0  0  0  0  0  0  0
    6.3151   -0.7139    1.1183 C   0  0  0  0  0  0  0  0  0  0  0  0
    4.8558    0.9645    2.0053 O   0  0  0  0  0  0  0  0  0  0  0  0
    5.7185   -3.9717   -1.7142 I   0  0  0  0  0  0  0  0  0  0  0  0
    6.5066   -1.8510    0.2356 C   0  0  0  0  0  0  0  0  0  0  0  0
  1  2  1  0
  3  1  2  0
  1  4  1  0
  5  3  1  0
  4  6  2  0
  7  5  2  0
  6  7  1  0
  8  7  1  0
  9  8  1  0
  9 10  1  0
  9 11  2  0
 10 12  2  0
 13 10  1  0
 12 14  1  0
 15 13  2  0
 13 16  1  0
 14 17  2  0
 17 15  1  0
 17 18  1  0
  2 19  2  0
 20  2  1  0
 19 21  1  0
 22 20  2  0
 20 23  1  0
 21 24  1  0
 21 25  2  0
 25 22  1  0
M  END
>  <ID>  (30) 


>  <MolWt>  (30) 
445.017491

>  <LogP>  (30) 
4.93012

>  <NumHDonors>  (30) 
3

>  <NumHAcceptors>  (30) 
3

$$$$

     RDKit          3D

 24 26  0  0  0  0  0  0  0  0999 V2000
   -2.2856   -0.2659    0.3842 C   0  0  0  0  0  0  0  0  0  0  0  0
   -3.7303   -0.2662    0.1575 C   0  0  0  0  0  0  0  0  0  0  0  0
   -1.8045   -0.5301    1.6211 C   0  0  0  0  0  0  0  0  0  0  0  0
   -1.3217    0.0785   -0.6687 C   0  0  0  0  0  0  0  0  0  0  0  0
   -0.3865   -0.3874    1.9142 C   0  0  0  0  0  0  0  0  0  0  0  0
   -0.0215    0.2684   -0.3804 C   0  0  0  0  0  0  0  0  0  0  0  0
    0.4431    0.1314    0.9895 C   0  0  0  0  0  0  0  0  0  0  0  0
    1.5613    0.8450    1.3445 N   0  0  0  0  0  0  0  0  0  0  0  0
    2.7258    0.1886    1.6762 C   0  0  0  0  0  0  0  0  0  0  0  0
    3.7458    0.2503    0.6018 C   0  0  0  0  0  0  0  0  0  0  0  0
    2.9158   -0.3773    2.7470 O   0  0  0  0  0  0  0  0  0  0  0  0
    3.9836   -0.8855   -0.0844 C   0  0  0  0  0  0  0  0  0  0  0  0
    4.6443    1.3864    0.4581 C   0  0  0  0  0  0  0  0  0  0  0  0
    5.2121   -1.0236   -0.8502 C   0  0  0  0  0  0  0  0  0  0  0  0
    5.7615    1.2714   -0.2860 C   0  0  0  0  0  0  0  0  0  0  0  0
    4.2757    2.5472    1.0965 O   0  0  0  0  0  0  0  0  0  0  0  0
    6.0745    0.0079   -0.9542 C   0  0  0  0  0  0  0  0  0  0  0  0
    7.3552   -0.0661   -1.7267 C   0  0  0  0  0  0  0  0  0  0  0  0
   -4.3477   -1.4109   -0.2143 C   0  0  0  0  0  0  0  0  0  0  0  0
   -4.5447    0.9482    0.2603 C   0  0  0  0  0  0  0  0  0  0  0  0
   -5.7442   -1.4139   -0.6170 C   0  0  0  0  0  0  0  0  0  0  0  0
   -5.8459    0.9408   -0.0816 C   0  0  0  0  0  0  0  0  0  0  0  0
   -6.4777   -0.2853   -0.5538 C   0  0  0  0  0  0  0  0  0  0  0  0
   -7.9232   -0.2182   -0.9372 C   0  0  0  0  0  0  0  0  0  0  0  0
  1  2  1  0
  3  1  2  0
  1  4  1  0
  5  3  1  0
  4  6  2  0
  7  5  2  0
  6  7  1  0
  8  7  1  0
  9  8  1  0
  9 10  1  0
  9 11  2  0
 10 12  2  0
 13 10  1  0
 12 14  1  0
 15 13  2  0
 13 16  1  0
 14 17  2  0
 17 15  1  0
 17 18  1  0
  2 19  2  0
 20  2  1  0
 19 21  1  0
 22 20  2  0
 21 23  2  0
 23 22  1  0
 23 24  1  0
M  END
>  <ID>  (31) 


>  <MolWt>  (31) 
317.141579

>  <LogP>  (31) 
4.92834

>  <NumHDonors>  (31) 
2

>  <NumHAcceptors>  (31) 
2

$$$$

     RDKit          3D

 24 26  0  0  0  0  0  0  0  0999 V2000
   -2.9525   -0.4402    0.3218 C   0  0  0  0  0  0  0  0  0  0  0  0
   -4.3298    0.0532    0.2542 C   0  0  0  0  0  0  0  0  0  0  0  0
   -2.4258   -0.7793    1.5203 C   0  0  0  0  0  0  0  0  0  0  0  0
   -2.0535   -0.4641   -0.8408 C   0  0  0  0  0  0  0  0  0  0  0  0
   -0.9810   -0.7908    1.7077 C   0  0  0  0  0  0  0  0  0  0  0  0
   -0.7182   -0.4816   -0.6711 C   0  0  0  0  0  0  0  0  0  0  0  0
   -0.1682   -0.4871    0.6745 C   0  0  0  0  0  0  0  0  0  0  0  0
    1.0073    0.1948    0.8694 N   0  0  0  0  0  0  0  0  0  0  0  0
    2.1681   -0.4743    1.1969 C   0  0  0  0  0  0  0  0  0  0  0  0
    3.2704   -0.1551    0.2548 C   0  0  0  0  0  0  0  0  0  0  0  0
    2.3142   -1.2048    2.1714 O   0  0  0  0  0  0  0  0  0  0  0  0
    3.6551   -1.1261   -0.5999 C   0  0  0  0  0  0  0  0  0  0  0  0
    4.1075    1.0209    0.4424 C   0  0  0  0  0  0  0  0  0  0  0  0
    4.9916   -1.0916   -1.1763 C   0  0  0  0  0  0  0  0  0  0  0  0
    5.3251    1.0762   -0.1312 C   0  0  0  0  0  0  0  0  0  0  0  0
    3.5695    2.0436    1.1903 O   0  0  0  0  0  0  0  0  0  0  0  0
    5.8061   -0.0402   -0.9485 C   0  0  0  0  0  0  0  0  0  0  0  0
    7.1992    0.0579   -1.4928 C   0  0  0  0  0  0  0  0  0  0  0  0
   -4.5447    1.3905    0.3200 C   0  0  0  0  0  0  0  0  0  0  0  0
   -5.5019   -0.8014    0.0255 C   0  0  0  0  0  0  0  0  0  0  0  0
   -5.7832    1.9657   -0.1766 C   0  0  0  0  0  0  0  0  0  0  0  0
   -6.6866   -0.2705   -0.3333 C   0  0  0  0  0  0  0  0  0  0  0  0
   -5.3099   -2.1496    0.2219 O   0  0  0  0  0  0  0  0  0  0  0  0
   -6.8159    1.1659   -0.4895 C   0  0  0  0  0  0  0  0  0  0  0  0
  1  2  1  0
  3  1  2  0
  1  4  1  0
  5  3  1  0
  4  6  2  0
  7  5  2  0
  6  7  1  0
  8  7  1  0
  9  8  1  0
  9 10  1  0
  9 11  2  0
 10 12  2  0
 13 10  1  0
 12 14  1  0
 15 13  2  0
 13 16  1  0
 14 17  2  0
 17 15  1  0
 17 18  1  0
  2 19  2  0
 20  2  1  0
 19 21  1  0
 22 20  2  0
 20 23  1  0
 21 24  2  0
 24 22  1  0
M  END
>  <ID>  (32) 


>  <MolWt>  (32) 
319.120843

>  <LogP>  (32) 
4.32552

>  <NumHDonors>  (32) 
3

>  <NumHAcceptors>  (32) 
3

$$$$

     RDKit          3D

 25 27  0  0  0  0  0  0  0  0999 V2000
    1.9122   -0.5601    0.2016 C   0  0  0  0  0  0  0  0  0  0  0  0
    3.2834   -0.6763   -0.2952 C   0  0  0  0  0  0  0  0  0  0  0  0
    0.8794   -0.8749   -0.6107 C   0  0  0  0  0  0  0  0  0  0  0  0
    1.5919   -0.0645    1.5438 C   0  0  0  0  0  0  0  0  0  0  0  0
   -0.4741   -0.4571   -0.2792 C   0  0  0  0  0  0  0  0  0  0  0  0
    0.3183    0.1674    1.9109 C   0  0  0  0  0  0  0  0  0  0  0  0
   -0.7701   -0.0975    0.9816 C   0  0  0  0  0  0  0  0  0  0  0  0
   -2.0133   -0.3712    1.4989 N   0  0  0  0  0  0  0  0  0  0  0  0
   -2.7881    0.6206    2.0495 C   0  0  0  0  0  0  0  0  0  0  0  0
   -3.8492    1.1483    1.1552 C   0  0  0  0  0  0  0  0  0  0  0  0
   -2.7345    0.9620    3.2260 O   0  0  0  0  0  0  0  0  0  0  0  0
   -3.4969    1.8150    0.0400 C   0  0  0  0  0  0  0  0  0  0  0  0
   -5.2095    0.6379    1.2748 C   0  0  0  0  0  0  0  0  0  0  0  0
   -4.2829    1.6320   -1.1701 C   0  0  0  0  0  0  0  0  0  0  0  0
   -5.9843    0.5504    0.1788 C   0  0  0  0  0  0  0  0  0  0  0  0
   -5.6791    0.3018    2.5258 O   0  0  0  0  0  0  0  0  0  0  0  0
   -5.4804    1.0105   -1.1154 C   0  0  0  0  0  0  0  0  0  0  0  0
   -6.3498    0.7872   -2.3155 C   0  0  0  0  0  0  0  0  0  0  0  0
    3.8666    0.4082   -0.8552 C   0  0  0  0  0  0  0  0  0  0  0  0
    4.1371   -1.8537   -0.0775 C   0  0  0  0  0  0  0  0  0  0  0  0
    5.3125    0.5594   -0.8442 C   0  0  0  0  0  0  0  0  0  0  0  0
    5.4779   -1.7572   -0.1653 C   0  0  0  0  0  0  0  0  0  0  0  0
    3.4797   -3.0309    0.1977 O   0  0  0  0  0  0  0  0  0  0  0  0
    6.1015   -0.4815   -0.5106 C   0  0  0  0  0  0  0  0  0  0  0  0
    7.5967   -0.4075   -0.4870 C   0  0  0  0  0  0  0  0  0  0  0  0
  1  2  1  0
  3  1  2  0
  1  4  1  0
  5  3  1  0
  4  6  2  0
  7  5  2  0
  6  7  1  0
  8  7  1  0
  9  8  1  0
  9 10  1  0
  9 11  2  0
 10 12  2  0
 13 10  1  0
 12 14  1  0
 15 13  2  0
 13 16  1  0
 14 17  2  0
 17 15  1  0
 17 18  1  0
  2 19  2  0
 20  2  1  0
 19 21  1  0
 22 20  2  0
 20 23  1  0
 21 24  2  0
 24 22  1  0
 24 25  1  0
M  END
>  <ID>  (33) 


>  <MolWt>  (33) 
333.136493

>  <LogP>  (33) 
4.63394

>  <NumHDonors>  (33) 
3

>  <NumHAcceptors>  (33) 
3

$$$$

     RDKit          3D

 24 26  0  0  0  0  0  0  0  0999 V2000
    2.9843   -0.3659    0.8462 C   0  0  0  0  0  0  0  0  0  0  0  0
    4.4051   -0.3855    0.5049 C   0  0  0  0  0  0  0  0  0  0  0  0
    2.3923   -1.4943    1.3068 C   0  0  0  0  0  0  0  0  0  0  0  0
    2.1273    0.8052    0.6183 C   0  0  0  0  0  0  0  0  0  0  0  0
    0.9445   -1.6439    1.2357 C   0  0  0  0  0  0  0  0  0  0  0  0
    0.7898    0.6686    0.5561 C   0  0  0  0  0  0  0  0  0  0  0  0
    0.1919   -0.6458    0.7298 C   0  0  0  0  0  0  0  0  0  0  0  0
   -0.9556   -0.9099    0.0223 N   0  0  0  0  0  0  0  0  0  0  0  0
   -2.1672   -1.0160    0.6728 C   0  0  0  0  0  0  0  0  0  0  0  0
   -3.1809   -0.0885    0.1146 C   0  0  0  0  0  0  0  0  0  0  0  0
   -2.4169   -1.8129    1.5685 O   0  0  0  0  0  0  0  0  0  0  0  0
   -3.5171    0.9872    0.8561 C   0  0  0  0  0  0  0  0  0  0  0  0
   -3.9639   -0.4369   -1.0616 C   0  0  0  0  0  0  0  0  0  0  0  0
   -4.7292    1.7288    0.5435 C   0  0  0  0  0  0  0  0  0  0  0  0
   -5.0723    0.2645   -1.3623 C   0  0  0  0  0  0  0  0  0  0  0  0
   -3.4924   -1.4807   -1.8230 O   0  0  0  0  0  0  0  0  0  0  0  0
   -5.4889    1.3839   -0.5173 C   0  0  0  0  0  0  0  0  0  0  0  0
   -6.7583    2.0913   -0.8844 C   0  0  0  0  0  0  0  0  0  0  0  0
    4.7788   -0.6456   -0.7694 C   0  0  0  0  0  0  0  0  0  0  0  0
    5.4636   -0.0806    1.4664 C   0  0  0  0  0  0  0  0  0  0  0  0
    6.1824   -0.6702   -1.1532 C   0  0  0  0  0  0  0  0  0  0  0  0
    6.7604   -0.0891    1.1184 C   0  0  0  0  0  0  0  0  0  0  0  0
    5.1150    0.2278    2.7306 F   0  0  0  0  0  0  0  0  0  0  0  0
    7.1365   -0.4049   -0.2434 C   0  0  0  0  0  0  0  0  0  0  0  0
  1  2  1  0
  3  1  2  0
  1  4  1  0
  5  3  1  0
  4  6  2  0
  7  5  2  0
  6  7  1  0
  8  7  1  0
  9  8  1  0
  9 10  1  0
  9 11  2  0
 10 12  2  0
 13 10  1  0
 12 14  1  0
 15 13  2  0
 13 16  1  0
 14 17  2  0
 17 15  1  0
 17 18  1  0
  2 19  2  0
 20  2  1  0
 19 21  1  0
 22 20  2  0
 20 23  1  0
 21 24  2  0
 24 22  1  0
M  END
>  <ID>  (34) 


>  <MolWt>  (34) 
321.116507

>  <LogP>  (34) 
4.75902

>  <NumHDonors>  (34) 
2

>  <NumHAcceptors>  (34) 
2

$$$$

     RDKit          3D

 24 26  0  0  0  0  0  0  0  0999 V2000
    3.1330   -0.1302    0.4179 C   0  0  0  0  0  0  0  0  0  0  0  0
    4.4472    0.4005    0.0630 C   0  0  0  0  0  0  0  0  0  0  0  0
    2.2423    0.6643    1.0550 C   0  0  0  0  0  0  0  0  0  0  0  0
    2.6661   -1.4514   -0.0156 C   0  0  0  0  0  0  0  0  0  0  0  0
    0.8156    0.3845    0.9699 C   0  0  0  0  0  0  0  0  0  0  0  0
    1.3499   -1.7217   -0.0722 C   0  0  0  0  0  0  0  0  0  0  0  0
    0.3838   -0.6977    0.2965 C   0  0  0  0  0  0  0  0  0  0  0  0
   -0.7974   -0.6559   -0.4006 N   0  0  0  0  0  0  0  0  0  0  0  0
   -1.8710   -1.4347   -0.0207 C   0  0  0  0  0  0  0  0  0  0  0  0
   -3.1173   -0.6366    0.0850 C   0  0  0  0  0  0  0  0  0  0  0  0
   -1.8387   -2.6437    0.1693 O   0  0  0  0  0  0  0  0  0  0  0  0
   -3.5868   -0.3839    1.3215 C   0  0  0  0  0  0  0  0  0  0  0  0
   -3.9572   -0.3888   -1.0766 C   0  0  0  0  0  0  0  0  0  0  0  0
   -4.9828   -0.0257    1.5023 C   0  0  0  0  0  0  0  0  0  0  0  0
   -5.2383   -0.0157   -0.9110 C   0  0  0  0  0  0  0  0  0  0  0  0
   -3.3559   -0.5244   -2.3053 O   0  0  0  0  0  0  0  0  0  0  0  0
   -5.7879    0.1477    0.4348 C   0  0  0  0  0  0  0  0  0  0  0  0
   -7.2376    0.5057    0.5486 C   0  0  0  0  0  0  0  0  0  0  0  0
    5.5185    0.0905    0.8283 C   0  0  0  0  0  0  0  0  0  0  0  0
    4.6790    1.1934   -1.1525 C   0  0  0  0  0  0  0  0  0  0  0  0
    6.8697    0.2922    0.3301 C   0  0  0  0  0  0  0  0  0  0  0  0
    5.9290    1.4558   -1.5729 C   0  0  0  0  0  0  0  0  0  0  0  0
    7.0562    0.9548   -0.8183 C   0  0  0  0  0  0  0  0  0  0  0  0
    8.2961    1.1773   -1.2928 F   0  0  0  0  0  0  0  0  0  0  0  0
  1  2  1  0
  3  1  2  0
  1  4  1  0
  5  3  1  0
  4  6  2  0
  7  5  2  0
  6  7  1  0
  8  7  1  0
  9  8  1  0
  9 10  1  0
  9 11  2  0
 10 12  2  0
 13 10  1  0
 12 14  1  0
 15 13  2  0
 13 16  1  0
 14 17  2  0
 17 15  1  0
 17 18  1  0
  2 19  2  0
 20  2  1  0
 19 21  1  0
 22 20  2  0
 21 23  2  0
 23 22  1  0
 23 24  1  0
M  END
>  <ID>  (35) 


>  <MolWt>  (35) 
321.116507

>  <LogP>  (35) 
4.75902

>  <NumHDonors>  (35) 
2

>  <NumHAcceptors>  (35) 
2

$$$$

     RDKit          3D

 23 25  0  0  0  0  0  0  0  0999 V2000
    2.8584   -0.3675   -0.1658 C   0  0  0  0  0  0  0  0  0  0  0  0
    4.2959   -0.1055   -0.1243 C   0  0  0  0  0  0  0  0  0  0  0  0
    1.9896    0.6671   -0.1006 C   0  0  0  0  0  0  0  0  0  0  0  0
    2.3023   -1.7247   -0.1621 C   0  0  0  0  0  0  0  0  0  0  0  0
    0.5863    0.4409    0.2074 C   0  0  0  0  0  0  0  0  0  0  0  0
    1.0041   -1.9353    0.1192 C   0  0  0  0  0  0  0  0  0  0  0  0
    0.1368   -0.8085    0.4235 C   0  0  0  0  0  0  0  0  0  0  0  0
   -0.9400   -1.0258    1.2471 N   0  0  0  0  0  0  0  0  0  0  0  0
   -2.1119   -1.5422    0.7397 C   0  0  0  0  0  0  0  0  0  0  0  0
   -3.1315   -0.5022    0.4643 C   0  0  0  0  0  0  0  0  0  0  0  0
   -2.3073   -2.7368    0.5494 O   0  0  0  0  0  0  0  0  0  0  0  0
   -3.3447   -0.1731   -0.8253 C   0  0  0  0  0  0  0  0  0  0  0  0
   -4.0162    0.0079    1.5007 C   0  0  0  0  0  0  0  0  0  0  0  0
   -4.4993    0.6320   -1.1873 C   0  0  0  0  0  0  0  0  0  0  0  0
   -5.0769    0.7669    1.1657 C   0  0  0  0  0  0  0  0  0  0  0  0
   -3.6923   -0.3121    2.7982 O   0  0  0  0  0  0  0  0  0  0  0  0
   -5.3415    1.0857   -0.2370 C   0  0  0  0  0  0  0  0  0  0  0  0
   -6.5552    1.9091   -0.5391 C   0  0  0  0  0  0  0  0  0  0  0  0
    4.9841    0.0249   -1.2815 C   0  0  0  0  0  0  0  0  0  0  0  0
    5.0442   -0.0128    1.1337 C   0  0  0  0  0  0  0  0  0  0  0  0
    6.4186    0.2614   -1.2797 C   0  0  0  0  0  0  0  0  0  0  0  0
    6.3709    0.2040    1.1372 C   0  0  0  0  0  0  0  0  0  0  0  0
    7.0850    0.3487   -0.1161 C   0  0  0  0  0  0  0  0  0  0  0  0
  1  2  1  0
  3  1  2  0
  1  4  1  0
  5  3  1  0
  4  6  2  0
  7  5  2  0
  6  7  1  0
  8  7  1  0
  9  8  1  0
  9 10  1  0
  9 11  2  0
 10 12  2  0
 13 10  1  0
 12 14  1  0
 15 13  2  0
 13 16  1  0
 14 17  2  0
 17 15  1  0
 17 18  1  0
  2 19  2  0
 20  2  1  0
 19 21  1  0
 22 20  2  0
 21 23  2  0
 23 22  1  0
M  END
>  <ID>  (36) 


>  <MolWt>  (36) 
303.125929

>  <LogP>  (36) 
4.61992

>  <NumHDonors>  (36) 
2

>  <NumHAcceptors>  (36) 
2

$$$$

     RDKit          3D

 25 27  0  0  0  0  0  0  0  0999 V2000
    2.8952   -0.1160   -0.0578 C   0  0  0  0  0  0  0  0  0  0  0  0
    4.2302   -0.6052    0.2823 C   0  0  0  0  0  0  0  0  0  0  0  0
    1.8833   -1.0001   -0.2257 C   0  0  0  0  0  0  0  0  0  0  0  0
    2.5761    1.3141   -0.1605 C   0  0  0  0  0  0  0  0  0  0  0  0
    0.5025   -0.5479   -0.3070 C   0  0  0  0  0  0  0  0  0  0  0  0
    1.2978    1.7304   -0.2209 C   0  0  0  0  0  0  0  0  0  0  0  0
    0.2113    0.7598   -0.1747 C   0  0  0  0  0  0  0  0  0  0  0  0
   -0.9718    1.1516    0.4086 N   0  0  0  0  0  0  0  0  0  0  0  0
   -1.8816    1.8961   -0.3062 C   0  0  0  0  0  0  0  0  0  0  0  0
   -3.1680    1.2063   -0.5824 C   0  0  0  0  0  0  0  0  0  0  0  0
   -1.7407    3.0841   -0.5866 O   0  0  0  0  0  0  0  0  0  0  0  0
   -3.1791    0.0167   -1.2134 C   0  0  0  0  0  0  0  0  0  0  0  0
   -4.3992    1.6919    0.0311 C   0  0  0  0  0  0  0  0  0  0  0  0
   -4.2319   -0.9380   -0.9026 C   0  0  0  0  0  0  0  0  0  0  0  0
   -5.4246    0.8457    0.2299 C   0  0  0  0  0  0  0  0  0  0  0  0
   -4.4969    3.0301    0.3414 O   0  0  0  0  0  0  0  0  0  0  0  0
   -5.3186   -0.5473   -0.2037 C   0  0  0  0  0  0  0  0  0  0  0  0
   -6.4528   -1.4620    0.1426 C   0  0  0  0  0  0  0  0  0  0  0  0
    5.1067   -0.8897   -0.7097 C   0  0  0  0  0  0  0  0  0  0  0  0
    4.6802   -0.8046    1.6651 C   0  0  0  0  0  0  0  0  0  0  0  0
    6.4623   -1.3279   -0.4097 C   0  0  0  0  0  0  0  0  0  0  0  0
    5.9223   -1.2278    1.9487 C   0  0  0  0  0  0  0  0  0  0  0  0
    3.8128   -0.5512    2.6668 F   0  0  0  0  0  0  0  0  0  0  0  0
    6.8417   -1.4888    0.8672 C   0  0  0  0  0  0  0  0  0  0  0  0
    8.0898   -1.8928    1.1700 F   0  0  0  0  0  0  0  0  0  0  0  0
  1  2  1  0
  3  1  2  0
  1  4  1  0
  5  3  1  0
  4  6  2  0
  7  5  2  0
  6  7  1  0
  8  7  1  0
  9  8  1  0
  9 10  1  0
  9 11  2  0
 10 12  2  0
 13 10  1  0
 12 14  1  0
 15 13  2  0
 13 16  1  0
 14 17  2  0
 17 15  1  0
 17 18  1  0
  2 19  2  0
 20  2  1  0
 19 21  1  0
 22 20  2  0
 20 23  1  0
 21 24  2  0
 24 22  1  0
 24 25  1  0
M  END
>  <ID>  (37) 


>  <MolWt>  (37) 
339.107085

>  <LogP>  (37) 
4.89812

>  <NumHDonors>  (37) 
2

>  <NumHAcceptors>  (37) 
2

$$$$

     RDKit          3D

 19 20  0  0  0  0  0  0  0  0999 V2000
    4.6227    1.8316   -0.5509 O   0  0  0  0  0  0  0  0  0  0  0  0
    3.4820    1.0682   -0.6429 C   0  0  0  0  0  0  0  0  0  0  0  0
    5.3732    1.7507   -1.7589 C   0  0  0  0  0  0  0  0  0  0  0  0
    2.2720    1.6131   -0.8693 C   0  0  0  0  0  0  0  0  0  0  0  0
    3.5809   -0.2898   -0.1314 C   0  0  0  0  0  0  0  0  0  0  0  0
    1.0718    0.8071   -0.6989 C   0  0  0  0  0  0  0  0  0  0  0  0
    2.4725   -1.0423   -0.0056 C   0  0  0  0  0  0  0  0  0  0  0  0
    1.1751   -0.4970   -0.3806 C   0  0  0  0  0  0  0  0  0  0  0  0
    0.1655   -1.3706   -0.7020 N   0  0  0  0  0  0  0  0  0  0  0  0
   -0.4710   -2.1019    0.2743 C   0  0  0  0  0  0  0  0  0  0  0  0
   -1.7219   -1.4945    0.7931 C   0  0  0  0  0  0  0  0  0  0  0  0
   -0.1250   -3.2282    0.6176 O   0  0  0  0  0  0  0  0  0  0  0  0
   -1.6380   -0.3777    1.5381 C   0  0  0  0  0  0  0  0  0  0  0  0
   -3.0045   -1.8424    0.1988 C   0  0  0  0  0  0  0  0  0  0  0  0
   -2.5838    0.6977    1.2838 C   0  0  0  0  0  0  0  0  0  0  0  0
   -3.9470   -0.8953    0.0645 C   0  0  0  0  0  0  0  0  0  0  0  0
   -3.2274   -3.1546   -0.1572 O   0  0  0  0  0  0  0  0  0  0  0  0
   -3.6970    0.4594    0.5585 C   0  0  0  0  0  0  0  0  0  0  0  0
   -4.7152    1.5072    0.2386 C   0  0  0  0  0  0  0  0  0  0  0  0
  1  2  1  0
  1  3  1  0
  4  2  2  0
  2  5  1  0
  6  4  1  0
  5  7  2  0
  8  6  2  0
  7  8  1  0
  9  8  1  0
 10  9  1  0
 10 11  1  0
 10 12  2  0
 11 13  2  0
 14 11  1  0
 13 15  1  0
 16 14  2  0
 14 17  1  0
 15 18  2  0
 18 16  1  0
 18 19  1  0
M  END
>  <ID>  (38) 


>  <MolWt>  (38) 
257.105193

>  <LogP>  (38) 
2.96152

>  <NumHDonors>  (38) 
2

>  <NumHAcceptors>  (38) 
3

$$$$

     RDKit          3D

 20 21  0  0  0  0  0  0  0  0999 V2000
   -4.7064   -0.5542    0.2765 C   0  0  0  0  0  0  0  0  0  0  0  0
   -3.2859   -0.0566    0.4622 C   0  0  0  0  0  0  0  0  0  0  0  0
   -4.9444   -1.1376   -1.1187 C   0  0  0  0  0  0  0  0  0  0  0  0
   -5.1026   -1.5576    1.3630 C   0  0  0  0  0  0  0  0  0  0  0  0
   -3.0084    1.2357    0.7390 C   0  0  0  0  0  0  0  0  0  0  0  0
   -2.1637   -0.9679    0.2325 C   0  0  0  0  0  0  0  0  0  0  0  0
   -1.6751    1.7657    0.5008 C   0  0  0  0  0  0  0  0  0  0  0  0
   -0.9285   -0.4764    0.0213 C   0  0  0  0  0  0  0  0  0  0  0  0
   -0.7094    0.9599    0.0225 C   0  0  0  0  0  0  0  0  0  0  0  0
    0.2787    1.4388   -0.8022 N   0  0  0  0  0  0  0  0  0  0  0  0
    1.4122    2.0065   -0.2642 C   0  0  0  0  0  0  0  0  0  0  0  0
    2.5855    1.1041   -0.3037 C   0  0  0  0  0  0  0  0  0  0  0  0
    1.4619    3.1437    0.1899 O   0  0  0  0  0  0  0  0  0  0  0  0
    2.9785    0.5471    0.8579 C   0  0  0  0  0  0  0  0  0  0  0  0
    3.3882    0.9244   -1.5039 C   0  0  0  0  0  0  0  0  0  0  0  0
    4.2032   -0.2325    0.9134 C   0  0  0  0  0  0  0  0  0  0  0  0
    4.5272    0.2059   -1.4516 C   0  0  0  0  0  0  0  0  0  0  0  0
    2.9141    1.5091   -2.6542 O   0  0  0  0  0  0  0  0  0  0  0  0
    4.9574   -0.4004   -0.1918 C   0  0  0  0  0  0  0  0  0  0  0  0
    6.2305   -1.1879   -0.2039 C   0  0  0  0  0  0  0  0  0  0  0  0
  1  2  1  0
  1  3  1  0
  1  4  1  0
  5  2  2  0
  2  6  1  0
  7  5  1  0
  6  8  2  0
  9  7  2  0
  8  9  1  0
 10  9  1  0
 11 10  1  0
 11 12  1  0
 11 13  2  0
 12 14  2  0
 15 12  1  0
 14 16  1  0
 17 15  2  0
 15 18  1  0
 16 19  2  0
 19 17  1  0
 19 20  1  0
M  END
>  <ID>  (39) 


>  <MolWt>  (39) 
269.141579

>  <LogP>  (39) 
4.07632

>  <NumHDonors>  (39) 
2

>  <NumHAcceptors>  (39) 
2

$$$$

     RDKit          3D

 13 13  0  0  0  0  0  0  0  0999 V2000
    1.2590    0.5909    0.3935 C   0  0  0  0  0  0  0  0  0  0  0  0
    1.8866    0.1966   -0.7384 O   0  0  0  0  0  0  0  0  0  0  0  0
   -0.1432    0.1348    0.4216 C   0  0  0  0  0  0  0  0  0  0  0  0
    1.7317    1.3001    1.2710 O   0  0  0  0  0  0  0  0  0  0  0  0
   -0.4165   -1.1630    0.1826 C   0  0  0  0  0  0  0  0  0  0  0  0
   -1.2346    1.1041    0.4676 C   0  0  0  0  0  0  0  0  0  0  0  0
   -1.6790   -1.5143   -0.4490 C   0  0  0  0  0  0  0  0  0  0  0  0
   -2.4465    0.7599   -0.0202 C   0  0  0  0  0  0  0  0  0  0  0  0
   -0.9843    2.3308    1.0521 O   0  0  0  0  0  0  0  0  0  0  0  0
   -1.8919   -3.2593   -1.0637 Br  0  0  0  0  0  0  0  0  0  0  0  0
   -2.6510   -0.5871   -0.5479 C   0  0  0  0  0  0  0  0  0  0  0  0
   -3.9219    1.9055   -0.0256 Br  0  0  0  0  0  0  0  0  0  0  0  0
    3.2202   -0.2501   -0.5003 C   0  0  0  0  0  0  0  0  0  0  0  0
  1  2  1  0
  1  3  1  0
  1  4  2  0
  3  5  2  0
  6  3  1  0
  5  7  1  0
  8  6  2  0
  6  9  1  0
  7 10  1  0
  7 11  2  0
 11  8  1  0
  8 12  1  0
  2 13  1  0
M  END
>  <ID>  (40) 


>  <MolWt>  (40) 
307.868368

>  <LogP>  (40) 
2.7038

>  <NumHDonors>  (40) 
1

>  <NumHAcceptors>  (40) 
3

$$$$

     RDKit          3D

 19 20  0  0  0  0  0  0  0  0999 V2000
   -0.6370    0.0044    0.5749 N   0  0  0  0  0  0  0  0  0  0  0  0
   -1.9240    0.0819    0.0809 C   0  0  0  0  0  0  0  0  0  0  0  0
    0.2672   -0.8803    0.0241 C   0  0  0  0  0  0  0  0  0  0  0  0
    1.6130   -0.2703   -0.1081 C   0  0  0  0  0  0  0  0  0  0  0  0
    0.0353   -2.0351   -0.3079 O   0  0  0  0  0  0  0  0  0  0  0  0
    2.0733   -0.0933   -1.3626 C   0  0  0  0  0  0  0  0  0  0  0  0
    2.5368   -0.2486    1.0171 C   0  0  0  0  0  0  0  0  0  0  0  0
    3.5068   -0.1081   -1.6131 C   0  0  0  0  0  0  0  0  0  0  0  0
    3.8683   -0.2119    0.7931 C   0  0  0  0  0  0  0  0  0  0  0  0
    1.9579   -0.2416    2.2686 O   0  0  0  0  0  0  0  0  0  0  0  0
    4.0852   -0.0264   -3.3827 Br  0  0  0  0  0  0  0  0  0  0  0  0
    4.3656   -0.1691   -0.5770 C   0  0  0  0  0  0  0  0  0  0  0  0
    5.1269   -0.1802    2.1716 Br  0  0  0  0  0  0  0  0  0  0  0  0
   -2.1808    0.8667   -0.9855 C   0  0  0  0  0  0  0  0  0  0  0  0
   -3.0467   -0.3492    0.9287 C   0  0  0  0  0  0  0  0  0  0  0  0
   -3.4622    1.5388   -1.1085 C   0  0  0  0  0  0  0  0  0  0  0  0
   -4.2594    0.2155    0.7558 C   0  0  0  0  0  0  0  0  0  0  0  0
   -2.7756   -1.6773    2.2175 Br  0  0  0  0  0  0  0  0  0  0  0  0
   -4.4640    1.2239   -0.2702 C   0  0  0  0  0  0  0  0  0  0  0  0
  1  2  1  0
  3  1  1  0
  3  4  1  0
  3  5  2  0
  4  6  2  0
  7  4  1  0
  6  8  1  0
  9  7  2  0
  7 10  1  0
  8 11  1  0
  8 12  2  0
 12  9  1  0
  9 13  1  0
  2 14  2  0
 15  2  1  0
 14 16  1  0
 17 15  2  0
 15 18  1  0
 16 19  2  0
 19 17  1  0
M  END
>  <ID>  (41) 


>  <MolWt>  (41) 
446.810515

>  <LogP>  (41) 
4.932

>  <NumHDonors>  (41) 
2

>  <NumHAcceptors>  (41) 
2

$$$$

     RDKit          3D

 19 20  0  0  0  0  0  0  0  0999 V2000
   -0.3186   -0.9556    1.0253 N   0  0  0  0  0  0  0  0  0  0  0  0
    0.9277   -0.4413    0.7577 C   0  0  0  0  0  0  0  0  0  0  0  0
   -1.1152   -1.4137    0.0004 C   0  0  0  0  0  0  0  0  0  0  0  0
   -2.0838   -0.4005   -0.4824 C   0  0  0  0  0  0  0  0  0  0  0  0
   -1.0562   -2.5470   -0.4605 O   0  0  0  0  0  0  0  0  0  0  0  0
   -1.8353    0.1475   -1.6888 C   0  0  0  0  0  0  0  0  0  0  0  0
   -3.3760   -0.2087    0.1589 C   0  0  0  0  0  0  0  0  0  0  0  0
   -2.8871    0.8716   -2.3858 C   0  0  0  0  0  0  0  0  0  0  0  0
   -4.3483    0.4797   -0.4782 C   0  0  0  0  0  0  0  0  0  0  0  0
   -3.5099   -0.7520    1.4184 O   0  0  0  0  0  0  0  0  0  0  0  0
   -2.5055    1.5550   -4.0768 Br  0  0  0  0  0  0  0  0  0  0  0  0
   -4.0907    1.0299   -1.8032 C   0  0  0  0  0  0  0  0  0  0  0  0
   -6.0358    0.7717    0.2668 Br  0  0  0  0  0  0  0  0  0  0  0  0
    1.2116    0.8384    1.0590 C   0  0  0  0  0  0  0  0  0  0  0  0
    2.0222   -1.3784    0.5477 C   0  0  0  0  0  0  0  0  0  0  0  0
    2.5571    1.2063    1.4679 C   0  0  0  0  0  0  0  0  0  0  0  0
    3.2842   -1.0196    0.8478 C   0  0  0  0  0  0  0  0  0  0  0  0
    3.5655    0.3158    1.3685 C   0  0  0  0  0  0  0  0  0  0  0  0
    4.9778    0.6203    1.7587 C   0  0  0  0  0  0  0  0  0  0  0  0
  1  2  1  0
  3  1  1  0
  3  4  1  0
  3  5  2  0
  4  6  2  0
  7  4  1  0
  6  8  1  0
  9  7  2  0
  7 10  1  0
  8 11  1  0
  8 12  2  0
 12  9  1  0
  9 13  1  0
  2 14  2  0
 15  2  1  0
 14 16  1  0
 17 15  2  0
 16 18  2  0
 18 17  1  0
 18 19  1  0
M  END
>  <ID>  (42) 


>  <MolWt>  (42) 
382.915653

>  <LogP>  (42) 
4.47792

>  <NumHDonors>  (42) 
2

>  <NumHAcceptors>  (42) 
2

$$$$

     RDKit          3D

 19 20  0  0  0  0  0  0  0  0999 V2000
   -0.1948    0.1922    1.7276 N   0  0  0  0  0  0  0  0  0  0  0  0
   -1.2501    0.8032    1.0885 C   0  0  0  0  0  0  0  0  0  0  0  0
    0.1551   -1.1145    1.4806 C   0  0  0  0  0  0  0  0  0  0  0  0
    1.0810   -1.3142    0.3392 C   0  0  0  0  0  0  0  0  0  0  0  0
   -0.1543   -2.0611    2.1966 O   0  0  0  0  0  0  0  0  0  0  0  0
    0.5825   -1.2236   -0.9080 C   0  0  0  0  0  0  0  0  0  0  0  0
    2.5220   -1.2554    0.5437 C   0  0  0  0  0  0  0  0  0  0  0  0
    1.3855   -0.5750   -1.9331 C   0  0  0  0  0  0  0  0  0  0  0  0
    3.3069   -0.7661   -0.4406 C   0  0  0  0  0  0  0  0  0  0  0  0
    3.0136   -1.7400    1.7381 O   0  0  0  0  0  0  0  0  0  0  0  0
    0.5464   -0.0927   -3.5235 Br  0  0  0  0  0  0  0  0  0  0  0  0
    2.6951   -0.3530   -1.7031 C   0  0  0  0  0  0  0  0  0  0  0  0
    5.1632   -0.6164   -0.3026 Br  0  0  0  0  0  0  0  0  0  0  0  0
   -2.5149    0.3810    1.2803 C   0  0  0  0  0  0  0  0  0  0  0  0
   -0.9880    1.7876    0.0348 C   0  0  0  0  0  0  0  0  0  0  0  0
   -3.5077    0.5819    0.2376 C   0  0  0  0  0  0  0  0  0  0  0  0
   -1.9385    2.0518   -0.8821 C   0  0  0  0  0  0  0  0  0  0  0  0
    0.5252    2.6188   -0.0050 Cl  0  0  0  0  0  0  0  0  0  0  0  0
   -3.2282    1.3825   -0.8062 C   0  0  0  0  0  0  0  0  0  0  0  0
  1  2  1  0
  3  1  1  0
  3  4  1  0
  3  5  2  0
  4  6  2  0
  7  4  1  0
  6  8  1  0
  9  7  2  0
  7 10  1  0
  8 11  1  0
  8 12  2  0
 12  9  1  0
  9 13  1  0
  2 14  2  0
 15  2  1  0
 14 16  1  0
 17 15  2  0
 15 18  1  0
 16 19  2  0
 19 17  1  0
M  END
>  <ID>  (43) 


>  <MolWt>  (43) 
402.86103

>  <LogP>  (43) 
4.8229

>  <NumHDonors>  (43) 
2

>  <NumHAcceptors>  (43) 
2

$$$$

     RDKit          3D

 19 20  0  0  0  0  0  0  0  0999 V2000
   -0.5917    1.0008    1.1449 N   0  0  0  0  0  0  0  0  0  0  0  0
   -1.5925    0.6615    0.2628 C   0  0  0  0  0  0  0  0  0  0  0  0
    0.3201    0.0465    1.5420 C   0  0  0  0  0  0  0  0  0  0  0  0
    1.4868   -0.0806    0.6316 C   0  0  0  0  0  0  0  0  0  0  0  0
    0.2266   -0.5720    2.5959 O   0  0  0  0  0  0  0  0  0  0  0  0
    2.5692    0.6444    0.9812 C   0  0  0  0  0  0  0  0  0  0  0  0
    1.6612   -1.2753   -0.1830 C   0  0  0  0  0  0  0  0  0  0  0  0
    3.8946    0.0535    0.8720 C   0  0  0  0  0  0  0  0  0  0  0  0
    2.8971   -1.7881   -0.3685 C   0  0  0  0  0  0  0  0  0  0  0  0
    0.5138   -1.7911   -0.7417 O   0  0  0  0  0  0  0  0  0  0  0  0
    5.3282    0.9787    1.6200 Br  0  0  0  0  0  0  0  0  0  0  0  0
    4.0489   -1.1172    0.2236 C   0  0  0  0  0  0  0  0  0  0  0  0
    3.2178   -3.3157   -1.3923 Br  0  0  0  0  0  0  0  0  0  0  0  0
   -2.6926   -0.0050    0.6642 C   0  0  0  0  0  0  0  0  0  0  0  0
   -1.6011    1.3482   -1.0208 C   0  0  0  0  0  0  0  0  0  0  0  0
   -3.9459    0.1614   -0.0563 C   0  0  0  0  0  0  0  0  0  0  0  0
   -2.7456    1.4518   -1.7226 C   0  0  0  0  0  0  0  0  0  0  0  0
   -3.9683    0.8603   -1.2054 C   0  0  0  0  0  0  0  0  0  0  0  0
   -5.4233    1.0635   -2.1005 Cl  0  0  0  0  0  0  0  0  0  0  0  0
  1  2  1  0
  3  1  1  0
  3  4  1  0
  3  5  2  0
  4  6  2  0
  7  4  1  0
  6  8  1  0
  9  7  2  0
  7 10  1  0
  8 11  1  0
  8 12  2  0
 12  9  1  0
  9 13  1  0
  2 14  2  0
 15  2  1  0
 14 16  1  0
 17 15  2  0
 16 18  2  0
 18 17  1  0
 18 19  1  0
M  END
>  <ID>  (44) 


>  <MolWt>  (44) 
402.86103

>  <LogP>  (44) 
4.8229

>  <NumHDonors>  (44) 
2

>  <NumHAcceptors>  (44) 
2

$$$$

     RDKit          3D

 19 20  0  0  0  0  0  0  0  0999 V2000
    0.5099    0.7068   -1.1202 N   0  0  0  0  0  0  0  0  0  0  0  0
    1.6409    0.0585   -0.6881 C   0  0  0  0  0  0  0  0  0  0  0  0
   -0.3334    1.3128   -0.2158 C   0  0  0  0  0  0  0  0  0  0  0  0
   -1.4716    0.4511    0.1860 C   0  0  0  0  0  0  0  0  0  0  0  0
   -0.1825    2.4545    0.2018 O   0  0  0  0  0  0  0  0  0  0  0  0
   -1.4087   -0.0725    1.4269 C   0  0  0  0  0  0  0  0  0  0  0  0
   -2.7512    0.5330   -0.5031 C   0  0  0  0  0  0  0  0  0  0  0  0
   -2.6359   -0.3196    2.1685 C   0  0  0  0  0  0  0  0  0  0  0  0
   -3.8923    0.2489    0.1616 C   0  0  0  0  0  0  0  0  0  0  0  0
   -2.6948    0.8846   -1.8341 O   0  0  0  0  0  0  0  0  0  0  0  0
   -2.4888   -0.8683    3.9431 Br  0  0  0  0  0  0  0  0  0  0  0  0
   -3.8269   -0.1621    1.5592 C   0  0  0  0  0  0  0  0  0  0  0  0
   -5.5775    0.3277   -0.6384 Br  0  0  0  0  0  0  0  0  0  0  0  0
    1.7797   -1.2691   -0.8585 C   0  0  0  0  0  0  0  0  0  0  0  0
    2.7870    0.8552   -0.2748 C   0  0  0  0  0  0  0  0  0  0  0  0
    3.0918   -1.8863   -0.7411 C   0  0  0  0  0  0  0  0  0  0  0  0
    3.9956    0.2786   -0.1368 C   0  0  0  0  0  0  0  0  0  0  0  0
    4.1618   -1.1454   -0.3946 C   0  0  0  0  0  0  0  0  0  0  0  0
    5.8672   -1.8753   -0.2205 Br  0  0  0  0  0  0  0  0  0  0  0  0
  1  2  1  0
  3  1  1  0
  3  4  1  0
  3  5  2  0
  4  6  2  0
  7  4  1  0
  6  8  1  0
  9  7  2  0
  7 10  1  0
  8 11  1  0
  8 12  2  0
 12  9  1  0
  9 13  1  0
  2 14  2  0
 15  2  1  0
 14 16  1  0
 17 15  2  0
 16 18  2  0
 18 17  1  0
 18 19  1  0
M  END
>  <ID>  (45) 


>  <MolWt>  (45) 
446.810515

>  <LogP>  (45) 
4.932

>  <NumHDonors>  (45) 
2

>  <NumHAcceptors>  (45) 
2

$$$$

     RDKit          3D

 19 20  0  0  0  0  0  0  0  0999 V2000
   -0.0394    1.1696   -1.2053 N   0  0  0  0  0  0  0  0  0  0  0  0
   -1.1482    1.1332   -0.3823 C   0  0  0  0  0  0  0  0  0  0  0  0
    0.3472    0.0413   -1.8953 C   0  0  0  0  0  0  0  0  0  0  0  0
    1.1729   -0.9218   -1.1266 C   0  0  0  0  0  0  0  0  0  0  0  0
    0.1425   -0.1154   -3.0937 O   0  0  0  0  0  0  0  0  0  0  0  0
    0.5376   -1.7298   -0.2562 C   0  0  0  0  0  0  0  0  0  0  0  0
    2.6073   -0.7078   -0.9855 C   0  0  0  0  0  0  0  0  0  0  0  0
    1.1279   -1.9419    1.0566 C   0  0  0  0  0  0  0  0  0  0  0  0
    3.2067   -1.0071    0.1876 C   0  0  0  0  0  0  0  0  0  0  0  0
    3.2878   -0.2308   -2.0859 O   0  0  0  0  0  0  0  0  0  0  0  0
    0.0672   -2.7163    2.3757 Br  0  0  0  0  0  0  0  0  0  0  0  0
    2.4110   -1.5879    1.2680 C   0  0  0  0  0  0  0  0  0  0  0  0
    5.0293   -0.7619    0.5082 Br  0  0  0  0  0  0  0  0  0  0  0  0
   -2.3961    0.9419   -0.8534 C   0  0  0  0  0  0  0  0  0  0  0  0
   -0.9421    1.3041    1.0546 C   0  0  0  0  0  0  0  0  0  0  0  0
   -3.5007    0.7541    0.0748 C   0  0  0  0  0  0  0  0  0  0  0  0
   -1.9692    1.1675    1.9087 C   0  0  0  0  0  0  0  0  0  0  0  0
    0.3290    1.5999    1.4905 O   0  0  0  0  0  0  0  0  0  0  0  0
   -3.2953    0.8617    1.4000 C   0  0  0  0  0  0  0  0  0  0  0  0
  1  2  1  0
  3  1  1  0
  3  4  1  0
  3  5  2  0
  4  6  2  0
  7  4  1  0
  6  8  1  0
  9  7  2  0
  7 10  1  0
  8 11  1  0
  8 12  2  0
 12  9  1  0
  9 13  1  0
  2 14  2  0
 15  2  1  0
 14 16  1  0
 17 15  2  0
 15 18  1  0
 16 19  2  0
 19 17  1  0
M  END
>  <ID>  (46) 


>  <MolWt>  (46) 
384.894917

>  <LogP>  (46) 
3.8751

>  <NumHDonors>  (46) 
3

>  <NumHAcceptors>  (46) 
3

$$$$

     RDKit          3D

 20 21  0  0  0  0  0  0  0  0999 V2000
    0.2080   -0.4851    1.6910 N   0  0  0  0  0  0  0  0  0  0  0  0
   -0.9599   -0.5491    0.9635 C   0  0  0  0  0  0  0  0  0  0  0  0
    0.8929    0.7003    1.8266 C   0  0  0  0  0  0  0  0  0  0  0  0
    1.8939    0.9810    0.7661 C   0  0  0  0  0  0  0  0  0  0  0  0
    0.8066    1.4484    2.7960 O   0  0  0  0  0  0  0  0  0  0  0  0
    1.4619    1.2398   -0.4826 C   0  0  0  0  0  0  0  0  0  0  0  0
    3.3006    0.6692    0.9865 C   0  0  0  0  0  0  0  0  0  0  0  0
    2.2209    0.7126   -1.6053 C   0  0  0  0  0  0  0  0  0  0  0  0
    4.0655    0.2985   -0.0635 C   0  0  0  0  0  0  0  0  0  0  0  0
    3.7883    0.8053    2.2700 O   0  0  0  0  0  0  0  0  0  0  0  0
    1.4114    0.7095   -3.2819 Br  0  0  0  0  0  0  0  0  0  0  0  0
    3.4735    0.2595   -1.4002 C   0  0  0  0  0  0  0  0  0  0  0  0
    5.8744   -0.1413    0.0789 Br  0  0  0  0  0  0  0  0  0  0  0  0
   -2.0773    0.1024    1.3326 C   0  0  0  0  0  0  0  0  0  0  0  0
   -0.9528   -1.3073   -0.2836 C   0  0  0  0  0  0  0  0  0  0  0  0
   -3.1628    0.2696    0.3799 C   0  0  0  0  0  0  0  0  0  0  0  0
   -1.9844   -1.2082   -1.1425 C   0  0  0  0  0  0  0  0  0  0  0  0
    0.1568   -2.0941   -0.4968 O   0  0  0  0  0  0  0  0  0  0  0  0
   -3.1279   -0.3564   -0.8149 C   0  0  0  0  0  0  0  0  0  0  0  0
   -4.2133   -0.2330   -1.8392 C   0  0  0  0  0  0  0  0  0  0  0  0
  1  2  1  0
  3  1  1  0
  3  4  1  0
  3  5  2  0
  4  6  2  0
  7  4  1  0
  6  8  1  0
  9  7  2  0
  7 10  1  0
  8 11  1  0
  8 12  2  0
 12  9  1  0
  9 13  1  0
  2 14  2  0
 15  2  1  0
 14 16  1  0
 17 15  2  0
 15 18  1  0
 16 19  2  0
 19 17  1  0
 19 20  1  0
M  END
>  <ID>  (47) 


>  <MolWt>  (47) 
398.910567

>  <LogP>  (47) 
4.18352

>  <NumHDonors>  (47) 
3

>  <NumHAcceptors>  (47) 
3

$$$$

     RDKit          3D

 19 20  0  0  0  0  0  0  0  0999 V2000
    0.2811    1.5066    0.5166 N   0  0  0  0  0  0  0  0  0  0  0  0
    1.5130    0.9174    0.6759 C   0  0  0  0  0  0  0  0  0  0  0  0
   -0.4130    1.3638   -0.6654 C   0  0  0  0  0  0  0  0  0  0  0  0
   -1.3054    0.1746   -0.6820 C   0  0  0  0  0  0  0  0  0  0  0  0
   -0.3310    2.1348   -1.6142 O   0  0  0  0  0  0  0  0  0  0  0  0
   -1.1022   -0.7223   -1.6674 C   0  0  0  0  0  0  0  0  0  0  0  0
   -2.5366    0.1374    0.0939 C   0  0  0  0  0  0  0  0  0  0  0  0
   -2.2038   -1.5603   -2.1164 C   0  0  0  0  0  0  0  0  0  0  0  0
   -3.5440   -0.6793   -0.2837 C   0  0  0  0  0  0  0  0  0  0  0  0
   -2.5649    0.9416    1.2141 O   0  0  0  0  0  0  0  0  0  0  0  0
   -1.9226   -2.6535   -3.5990 Br  0  0  0  0  0  0  0  0  0  0  0  0
   -3.3760   -1.5343   -1.4529 C   0  0  0  0  0  0  0  0  0  0  0  0
   -5.1554   -0.7987    0.6513 Br  0  0  0  0  0  0  0  0  0  0  0  0
    2.6379    1.5086    0.2294 C   0  0  0  0  0  0  0  0  0  0  0  0
    1.6136   -0.3132    1.4485 C   0  0  0  0  0  0  0  0  0  0  0  0
    3.9346    0.9021    0.4913 C   0  0  0  0  0  0  0  0  0  0  0  0
    2.8085   -0.8729    1.6984 C   0  0  0  0  0  0  0  0  0  0  0  0
    0.4834   -0.8812    1.9181 F   0  0  0  0  0  0  0  0  0  0  0  0
    4.0172   -0.2420    1.1948 C   0  0  0  0  0  0  0  0  0  0  0  0
  1  2  1  0
  3  1  1  0
  3  4  1  0
  3  5  2  0
  4  6  2  0
  7  4  1  0
  6  8  1  0
  9  7  2  0
  7 10  1  0
  8 11  1  0
  8 12  2  0
 12  9  1  0
  9 13  1  0
  2 14  2  0
 15  2  1  0
 14 16  1  0
 17 15  2  0
 15 18  1  0
 16 19  2  0
 19 17  1  0
M  END
>  <ID>  (48) 


>  <MolWt>  (48) 
386.890581

>  <LogP>  (48) 
4.3086

>  <NumHDonors>  (48) 
2

>  <NumHAcceptors>  (48) 
2

$$$$

     RDKit          3D

 19 20  0  0  0  0  0  0  0  0999 V2000
    0.3511    1.3167    0.1386 N   0  0  0  0  0  0  0  0  0  0  0  0
    1.6018    0.7597    0.0311 C   0  0  0  0  0  0  0  0  0  0  0  0
   -0.6100    1.0538   -0.8120 C   0  0  0  0  0  0  0  0  0  0  0  0
   -1.5419   -0.0269   -0.4102 C   0  0  0  0  0  0  0  0  0  0  0  0
   -0.7091    1.6576   -1.8733 O   0  0  0  0  0  0  0  0  0  0  0  0
   -1.3841   -1.2159   -1.0259 C   0  0  0  0  0  0  0  0  0  0  0  0
   -2.7700    0.2643    0.3149 C   0  0  0  0  0  0  0  0  0  0  0  0
   -2.5036   -2.1419   -1.1078 C   0  0  0  0  0  0  0  0  0  0  0  0
   -3.7997   -0.6088    0.2709 C   0  0  0  0  0  0  0  0  0  0  0  0
   -2.7806    1.4394    1.0347 O   0  0  0  0  0  0  0  0  0  0  0  0
   -2.2661   -3.7170   -2.0752 Br  0  0  0  0  0  0  0  0  0  0  0  0
   -3.6623   -1.8465   -0.4876 C   0  0  0  0  0  0  0  0  0  0  0  0
   -5.4107   -0.3214    1.1705 Br  0  0  0  0  0  0  0  0  0  0  0  0
    2.0323   -0.1412    0.9357 C   0  0  0  0  0  0  0  0  0  0  0  0
    2.5480    1.3545   -0.9067 C   0  0  0  0  0  0  0  0  0  0  0  0
    3.4521   -0.4383    1.0483 C   0  0  0  0  0  0  0  0  0  0  0  0
    3.8585    1.0605   -0.8167 C   0  0  0  0  0  0  0  0  0  0  0  0
    4.3189    0.1446    0.2052 C   0  0  0  0  0  0  0  0  0  0  0  0
    5.6377   -0.1173    0.2835 F   0  0  0  0  0  0  0  0  0  0  0  0
  1  2  1  0
  3  1  1  0
  3  4  1  0
  3  5  2  0
  4  6  2  0
  7  4  1  0
  6  8  1  0
  9  7  2  0
  7 10  1  0
  8 11  1  0
  8 12  2  0
 12  9  1  0
  9 13  1  0
  2 14  2  0
 15  2  1  0
 14 16  1  0
 17 15  2  0
 16 18  2  0
 18 17  1  0
 18 19  1  0
M  END
>  <ID>  (49) 


>  <MolWt>  (49) 
386.890581

>  <LogP>  (49) 
4.3086

>  <NumHDonors>  (49) 
2

>  <NumHAcceptors>  (49) 
2

$$$$

     RDKit          3D

 18 19  0  0  0  0  0  0  0  0999 V2000
   -0.3305   -1.0475   -0.8867 N   0  0  0  0  0  0  0  0  0  0  0  0
   -1.5712   -0.4915   -0.6862 C   0  0  0  0  0  0  0  0  0  0  0  0
    0.5101   -1.2693    0.1809 C   0  0  0  0  0  0  0  0  0  0  0  0
    1.4802   -0.1688    0.3959 C   0  0  0  0  0  0  0  0  0  0  0  0
    0.4870   -2.2809    0.8716 O   0  0  0  0  0  0  0  0  0  0  0  0
    1.2415    0.6433    1.4457 C   0  0  0  0  0  0  0  0  0  0  0  0
    2.7974   -0.1912   -0.2229 C   0  0  0  0  0  0  0  0  0  0  0  0
    2.3454    1.3433    2.0843 C   0  0  0  0  0  0  0  0  0  0  0  0
    3.8162    0.4952    0.3393 C   0  0  0  0  0  0  0  0  0  0  0  0
    2.9034   -0.9170   -1.3892 O   0  0  0  0  0  0  0  0  0  0  0  0
    1.9804    2.3422    3.6146 Br  0  0  0  0  0  0  0  0  0  0  0  0
    3.5807    1.2677    1.5526 C   0  0  0  0  0  0  0  0  0  0  0  0
    5.5392    0.5215   -0.3817 Br  0  0  0  0  0  0  0  0  0  0  0  0
   -1.8730    0.7148   -1.2024 C   0  0  0  0  0  0  0  0  0  0  0  0
   -2.6394   -1.3448   -0.1827 C   0  0  0  0  0  0  0  0  0  0  0  0
   -3.2612    1.0848   -1.4237 C   0  0  0  0  0  0  0  0  0  0  0  0
   -3.9244   -0.9784   -0.3394 C   0  0  0  0  0  0  0  0  0  0  0  0
   -4.2471    0.2723   -1.0047 C   0  0  0  0  0  0  0  0  0  0  0  0
  1  2  1  0
  3  1  1  0
  3  4  1  0
  3  5  2  0
  4  6  2  0
  7  4  1  0
  6  8  1  0
  9  7  2  0
  7 10  1  0
  8 11  1  0
  8 12  2  0
 12  9  1  0
  9 13  1  0
  2 14  2  0
 15  2  1  0
 14 16  1  0
 17 15  2  0
 16 18  2  0
 18 17  1  0
M  END
>  <ID>  (50) 


>  <MolWt>  (50) 
368.900003

>  <LogP>  (50) 
4.1695

>  <NumHDonors>  (50) 
2

>  <NumHAcceptors>  (50) 
2

$$$$

     RDKit          3D

 20 21  0  0  0  0  0  0  0  0999 V2000
   -0.5571   -1.0451    0.8675 N   0  0  0  0  0  0  0  0  0  0  0  0
   -1.6718   -0.9276    0.0674 C   0  0  0  0  0  0  0  0  0  0  0  0
    0.1088    0.0897    1.2794 C   0  0  0  0  0  0  0  0  0  0  0  0
    1.3736    0.3157    0.5383 C   0  0  0  0  0  0  0  0  0  0  0  0
   -0.2741    0.8318    2.1747 O   0  0  0  0  0  0  0  0  0  0  0  0
    1.3832    1.3509   -0.3259 C   0  0  0  0  0  0  0  0  0  0  0  0
    2.6274   -0.2731    0.9867 C   0  0  0  0  0  0  0  0  0  0  0  0
    2.6438    1.9821   -0.6859 C   0  0  0  0  0  0  0  0  0  0  0  0
    3.8017    0.2901    0.6280 C   0  0  0  0  0  0  0  0  0  0  0  0
    2.5169   -1.4138    1.7520 O   0  0  0  0  0  0  0  0  0  0  0  0
    2.5860    3.4799   -1.7931 Br  0  0  0  0  0  0  0  0  0  0  0  0
    3.8021    1.4738   -0.2229 C   0  0  0  0  0  0  0  0  0  0  0  0
    5.4569   -0.3975    1.1507 Br  0  0  0  0  0  0  0  0  0  0  0  0
   -1.5775   -0.9084   -1.2771 C   0  0  0  0  0  0  0  0  0  0  0  0
   -2.9839   -0.7989    0.6916 C   0  0  0  0  0  0  0  0  0  0  0  0
   -2.7341   -0.5243   -2.0743 C   0  0  0  0  0  0  0  0  0  0  0  0
   -4.0671   -0.5038   -0.0447 C   0  0  0  0  0  0  0  0  0  0  0  0
   -3.0956   -1.0068    2.0194 F   0  0  0  0  0  0  0  0  0  0  0  0
   -3.9208   -0.3338   -1.4739 C   0  0  0  0  0  0  0  0  0  0  0  0
   -5.0086    0.0043   -2.1926 F   0  0  0  0  0  0  0  0  0  0  0  0
  1  2  1  0
  3  1  1  0
  3  4  1  0
  3  5  2  0
  4  6  2  0
  7  4  1  0
  6  8  1  0
  9  7  2  0
  7 10  1  0
  8 11  1  0
  8 12  2  0
 12  9  1  0
  9 13  1  0
  2 14  2  0
 15  2  1  0
 14 16  1  0
 17 15  2  0
 15 18  1  0
 16 19  2  0
 19 17  1  0
 19 20  1  0
M  END
>  <ID>  (51) 


>  <MolWt>  (51) 
404.881159

>  <LogP>  (51) 
4.4477

>  <NumHDonors>  (51) 
2

>  <NumHAcceptors>  (51) 
2

$$$$

     RDKit          3D

 20 21  0  0  0  0  0  0  0  0999 V2000
    4.2664   -0.5553    2.0995 O   0  0  0  0  0  0  0  0  0  0  0  0
    3.1192   -0.3663    1.3627 C   0  0  0  0  0  0  0  0  0  0  0  0
    5.1920   -1.3606    1.3688 C   0  0  0  0  0  0  0  0  0  0  0  0
    2.0040   -1.0885    1.5756 C   0  0  0  0  0  0  0  0  0  0  0  0
    3.0384    0.8962    0.6442 C   0  0  0  0  0  0  0  0  0  0  0  0
    0.7340   -0.6438    1.0248 C   0  0  0  0  0  0  0  0  0  0  0  0
    1.8505    1.3394    0.1924 C   0  0  0  0  0  0  0  0  0  0  0  0
    0.6402    0.5623    0.4332 C   0  0  0  0  0  0  0  0  0  0  0  0
   -0.5732    1.2086    0.3589 N   0  0  0  0  0  0  0  0  0  0  0  0
   -1.1193    1.5226   -0.8638 C   0  0  0  0  0  0  0  0  0  0  0  0
   -2.2199    0.6329   -1.3083 C   0  0  0  0  0  0  0  0  0  0  0  0
   -0.8443    2.5329   -1.5045 O   0  0  0  0  0  0  0  0  0  0  0  0
   -1.9872   -0.6865   -1.4466 C   0  0  0  0  0  0  0  0  0  0  0  0
   -3.5973    1.1158   -1.2872 C   0  0  0  0  0  0  0  0  0  0  0  0
   -3.0291   -1.6244   -1.0531 C   0  0  0  0  0  0  0  0  0  0  0  0
   -4.6007    0.2420   -1.0522 C   0  0  0  0  0  0  0  0  0  0  0  0
   -3.8055    2.4560   -1.5453 O   0  0  0  0  0  0  0  0  0  0  0  0
   -2.5647   -3.4176   -0.8644 Br  0  0  0  0  0  0  0  0  0  0  0  0
   -4.2856   -1.1735   -0.8646 C   0  0  0  0  0  0  0  0  0  0  0  0
   -6.4013    0.7311   -0.9889 Br  0  0  0  0  0  0  0  0  0  0  0  0
  1  2  1  0
  1  3  1  0
  4  2  2  0
  2  5  1  0
  6  4  1  0
  5  7  2  0
  8  6  2  0
  7  8  1  0
  9  8  1  0
 10  9  1  0
 10 11  1  0
 10 12  2  0
 11 13  2  0
 14 11  1  0
 13 15  1  0
 16 14  2  0
 14 17  1  0
 15 18  1  0
 15 19  2  0
 19 16  1  0
 16 20  1  0
M  END
>  <ID>  (52) 


>  <MolWt>  (52) 
398.910567

>  <LogP>  (52) 
4.1781

>  <NumHDonors>  (52) 
2

>  <NumHAcceptors>  (52) 
3

$$$$

     RDKit          3D

 21 22  0  0  0  0  0  0  0  0999 V2000
    0.7737   -2.2726   -0.6499 C   0  0  0  0  0  0  0  0  0  0  0  0
    1.8428   -1.3634   -0.1589 C   0  0  0  0  0  0  0  0  0  0  0  0
   -0.0599   -1.7061   -1.5774 N   0  0  0  0  0  0  0  0  0  0  0  0
    0.7206   -3.4492   -0.3143 O   0  0  0  0  0  0  0  0  0  0  0  0
   -1.3054   -1.3213   -1.1622 C   0  0  0  0  0  0  0  0  0  0  0  0
   -1.3381   -0.0747   -0.3542 C   0  0  0  0  0  0  0  0  0  0  0  0
   -2.3281   -1.8830   -1.5384 O   0  0  0  0  0  0  0  0  0  0  0  0
   -1.3485    1.0802   -1.0506 C   0  0  0  0  0  0  0  0  0  0  0  0
   -1.8600   -0.0957    1.0052 C   0  0  0  0  0  0  0  0  0  0  0  0
   -2.1640    2.1925   -0.5860 C   0  0  0  0  0  0  0  0  0  0  0  0
   -2.5565    0.9609    1.4767 C   0  0  0  0  0  0  0  0  0  0  0  0
   -1.5675   -1.2241    1.7356 O   0  0  0  0  0  0  0  0  0  0  0  0
   -2.3334    3.6752   -1.7008 Br  0  0  0  0  0  0  0  0  0  0  0  0
   -2.7465    2.1307    0.6272 C   0  0  0  0  0  0  0  0  0  0  0  0
   -3.2595    1.0220    3.2044 Br  0  0  0  0  0  0  0  0  0  0  0  0
    1.7015   -0.9128    1.1041 C   0  0  0  0  0  0  0  0  0  0  0  0
    2.7613   -0.6744   -1.0635 C   0  0  0  0  0  0  0  0  0  0  0  0
    2.0605    0.4615    1.4098 C   0  0  0  0  0  0  0  0  0  0  0  0
    3.1900    0.5618   -0.7343 C   0  0  0  0  0  0  0  0  0  0  0  0
    3.3587   -1.5430   -2.6025 Br  0  0  0  0  0  0  0  0  0  0  0  0
    2.7713    1.1749    0.5182 C   0  0  0  0  0  0  0  0  0  0  0  0
  1  2  1  0
  1  3  1  0
  1  4  2  0
  5  3  1  0
  5  6  1  0
  5  7  2  0
  6  8  2  0
  9  6  1  0
  8 10  1  0
 11  9  2  0
  9 12  1  0
 10 13  1  0
 10 14  2  0
 14 11  1  0
 11 15  1  0
  2 16  2  0
 17  2  1  0
 16 18  1  0
 19 17  2  0
 17 20  1  0
 18 21  2  0
 21 19  1  0
M  END
>  <ID>  (53) 


>  <MolWt>  (53) 
474.805429

>  <LogP>  (53) 
4.2499

>  <NumHDonors>  (53) 
2

>  <NumHAcceptors>  (53) 
3

$$$$

     RDKit          3D

 21 22  0  0  0  0  0  0  0  0999 V2000
   -0.6923    0.8931    0.9353 C   0  0  0  0  0  0  0  0  0  0  0  0
   -2.0010    0.4339    0.3999 C   0  0  0  0  0  0  0  0  0  0  0  0
    0.3889    0.3998    0.2533 N   0  0  0  0  0  0  0  0  0  0  0  0
   -0.6218    1.6684    1.8814 O   0  0  0  0  0  0  0  0  0  0  0  0
    1.1641   -0.4558    0.9750 C   0  0  0  0  0  0  0  0  0  0  0  0
    2.5160    0.0510    1.3239 C   0  0  0  0  0  0  0  0  0  0  0  0
    0.8606   -1.6218    1.2140 O   0  0  0  0  0  0  0  0  0  0  0  0
    2.6459    1.2454    1.9335 C   0  0  0  0  0  0  0  0  0  0  0  0
    3.7006   -0.6064    0.7759 C   0  0  0  0  0  0  0  0  0  0  0  0
    3.8221    2.0563    1.6581 C   0  0  0  0  0  0  0  0  0  0  0  0
    4.8365    0.1046    0.6065 C   0  0  0  0  0  0  0  0  0  0  0  0
    3.6056   -1.9533    0.4842 O   0  0  0  0  0  0  0  0  0  0  0  0
    3.8235    3.8232    2.2458 Br  0  0  0  0  0  0  0  0  0  0  0  0
    4.8712    1.5060    1.0167 C   0  0  0  0  0  0  0  0  0  0  0  0
    6.4109   -0.6149   -0.0946 Br  0  0  0  0  0  0  0  0  0  0  0  0
   -2.5791    1.2052   -0.5404 C   0  0  0  0  0  0  0  0  0  0  0  0
   -2.4320   -0.9456    0.5650 C   0  0  0  0  0  0  0  0  0  0  0  0
   -3.3661    0.5786   -1.5905 C   0  0  0  0  0  0  0  0  0  0  0  0
   -3.2276   -1.5088   -0.3620 C   0  0  0  0  0  0  0  0  0  0  0  0
   -3.6839   -0.7304   -1.5123 C   0  0  0  0  0  0  0  0  0  0  0  0
   -4.5084   -1.4412   -2.5409 C   0  0  0  0  0  0  0  0  0  0  0  0
  1  2  1  0
  1  3  1  0
  1  4  2  0
  5  3  1  0
  5  6  1  0
  5  7  2  0
  6  8  2  0
  9  6  1  0
  8 10  1  0
 11  9  2  0
  9 12  1  0
 10 13  1  0
 10 14  2  0
 14 11  1  0
 11 15  1  0
  2 16  2  0
 17  2  1  0
 16 18  1  0
 19 17  2  0
 18 20  2  0
 20 19  1  0
 20 21  1  0
M  END
>  <ID>  (54) 


>  <MolWt>  (54) 
410.910567

>  <LogP>  (54) 
3.79582

>  <NumHDonors>  (54) 
2

>  <NumHAcceptors>  (54) 
3

$$$$

     RDKit          3D

 21 22  0  0  0  0  0  0  0  0999 V2000
   -1.2423   -0.1025   -1.0805 C   0  0  0  0  0  0  0  0  0  0  0  0
   -1.5806    1.0921   -0.2686 C   0  0  0  0  0  0  0  0  0  0  0  0
   -0.0751    0.0721   -1.7812 N   0  0  0  0  0  0  0  0  0  0  0  0
   -1.9489   -1.1004   -1.1065 O   0  0  0  0  0  0  0  0  0  0  0  0
    0.6751   -1.0371   -2.0500 C   0  0  0  0  0  0  0  0  0  0  0  0
    1.5122   -1.5475   -0.9371 C   0  0  0  0  0  0  0  0  0  0  0  0
    0.8119   -1.4888   -3.1833 O   0  0  0  0  0  0  0  0  0  0  0  0
    0.9221   -2.1531    0.1109 C   0  0  0  0  0  0  0  0  0  0  0  0
    2.9263   -1.1987   -0.8614 C   0  0  0  0  0  0  0  0  0  0  0  0
    1.5226   -2.0156    1.4289 C   0  0  0  0  0  0  0  0  0  0  0  0
    3.5357   -1.1679    0.3437 C   0  0  0  0  0  0  0  0  0  0  0  0
    3.5868   -0.9544   -2.0482 O   0  0  0  0  0  0  0  0  0  0  0  0
    0.5167   -2.5378    2.9059 Br  0  0  0  0  0  0  0  0  0  0  0  0
    2.7768   -1.5355    1.5377 C   0  0  0  0  0  0  0  0  0  0  0  0
    5.3340   -0.7254    0.5818 Br  0  0  0  0  0  0  0  0  0  0  0  0
   -1.3540    1.0069    1.0584 C   0  0  0  0  0  0  0  0  0  0  0  0
   -2.4874    2.1129   -0.7792 C   0  0  0  0  0  0  0  0  0  0  0  0
   -2.2240    1.7171    1.9820 C   0  0  0  0  0  0  0  0  0  0  0  0
   -3.2371    2.8295    0.0797 C   0  0  0  0  0  0  0  0  0  0  0  0
   -2.5430    2.4353   -2.4721 Cl  0  0  0  0  0  0  0  0  0  0  0  0
   -3.1312    2.5911    1.5108 C   0  0  0  0  0  0  0  0  0  0  0  0
  1  2  1  0
  1  3  1  0
  1  4  2  0
  5  3  1  0
  5  6  1  0
  5  7  2  0
  6  8  2  0
  9  6  1  0
  8 10  1  0
 11  9  2  0
  9 12  1  0
 10 13  1  0
 10 14  2  0
 14 11  1  0
 11 15  1  0
  2 16  2  0
 17  2  1  0
 16 18  1  0
 19 17  2  0
 17 20  1  0
 18 21  2  0
 21 19  1  0
M  END
>  <ID>  (55) 


>  <MolWt>  (55) 
430.855945

>  <LogP>  (55) 
4.1408

>  <NumHDonors>  (55) 
2

>  <NumHAcceptors>  (55) 
3

$$$$

     RDKit          3D

 22 23  0  0  0  0  0  0  0  0999 V2000
    0.9058    0.3124   -1.5283 C   0  0  0  0  0  0  0  0  0  0  0  0
    2.2671   -0.1565   -1.1641 C   0  0  0  0  0  0  0  0  0  0  0  0
    0.2817    1.0700   -0.5746 N   0  0  0  0  0  0  0  0  0  0  0  0
    0.4241    0.0692   -2.6289 O   0  0  0  0  0  0  0  0  0  0  0  0
   -0.4990    0.3875    0.3116 C   0  0  0  0  0  0  0  0  0  0  0  0
   -1.9230    0.3022   -0.0902 C   0  0  0  0  0  0  0  0  0  0  0  0
   -0.0724   -0.0667    1.3664 O   0  0  0  0  0  0  0  0  0  0  0  0
   -2.3275   -0.8840   -0.5870 C   0  0  0  0  0  0  0  0  0  0  0  0
   -2.9036    1.2120    0.4832 C   0  0  0  0  0  0  0  0  0  0  0  0
   -3.6414   -1.3983   -0.2311 C   0  0  0  0  0  0  0  0  0  0  0  0
   -4.1572    0.7763    0.7354 C   0  0  0  0  0  0  0  0  0  0  0  0
   -2.4627    2.4967    0.7126 O   0  0  0  0  0  0  0  0  0  0  0  0
   -4.0533   -3.1499   -0.7124 Br  0  0  0  0  0  0  0  0  0  0  0  0
   -4.5195   -0.5972    0.4033 C   0  0  0  0  0  0  0  0  0  0  0  0
   -5.4797    1.8665    1.4747 Br  0  0  0  0  0  0  0  0  0  0  0  0
    3.2736    0.7309   -1.2998 C   0  0  0  0  0  0  0  0  0  0  0  0
    2.4842   -1.3790   -0.4021 C   0  0  0  0  0  0  0  0  0  0  0  0
    4.3942    0.6724   -0.3727 C   0  0  0  0  0  0  0  0  0  0  0  0
    3.5711   -1.4833    0.3865 C   0  0  0  0  0  0  0  0  0  0  0  0
    1.3824   -2.6943   -0.5582 Cl  0  0  0  0  0  0  0  0  0  0  0  0
    4.5324   -0.3928    0.4390 C   0  0  0  0  0  0  0  0  0  0  0  0
    5.8571   -0.5159    1.5292 Cl  0  0  0  0  0  0  0  0  0  0  0  0
  1  2  1  0
  1  3  1  0
  1  4  2  0
  5  3  1  0
  5  6  1  0
  5  7  2  0
  6  8  2  0
  9  6  1  0
  8 10  1  0
 11  9  2  0
  9 12  1  0
 10 13  1  0
 10 14  2  0
 14 11  1  0
 11 15  1  0
  2 16  2  0
 17  2  1  0
 16 18  1  0
 19 17  2  0
 17 20  1  0
 18 21  2  0
 21 19  1  0
 21 22  1  0
M  END
>  <ID>  (56) 


>  <MolWt>  (56) 
464.816973

>  <LogP>  (56) 
4.7942

>  <NumHDonors>  (56) 
2

>  <NumHAcceptors>  (56) 
3

$$$$

     RDKit          3D

 21 22  0  0  0  0  0  0  0  0999 V2000
    0.4463   -1.8342   -1.7101 C   0  0  0  0  0  0  0  0  0  0  0  0
    1.6214   -1.0141   -1.3230 C   0  0  0  0  0  0  0  0  0  0  0  0
   -0.7548   -1.3988   -1.2236 N   0  0  0  0  0  0  0  0  0  0  0  0
    0.5416   -2.7858   -2.4754 O   0  0  0  0  0  0  0  0  0  0  0  0
   -0.9690   -1.5441    0.1195 C   0  0  0  0  0  0  0  0  0  0  0  0
   -1.4826   -0.3197    0.7797 C   0  0  0  0  0  0  0  0  0  0  0  0
   -0.8779   -2.5914    0.7478 O   0  0  0  0  0  0  0  0  0  0  0  0
   -0.6666    0.7470    0.8762 C   0  0  0  0  0  0  0  0  0  0  0  0
   -2.9185   -0.1382    0.9540 C   0  0  0  0  0  0  0  0  0  0  0  0
   -1.2171    2.0715    0.6329 C   0  0  0  0  0  0  0  0  0  0  0  0
   -3.4446    1.1019    0.8517 C   0  0  0  0  0  0  0  0  0  0  0  0
   -3.6680   -1.2588    1.2447 O   0  0  0  0  0  0  0  0  0  0  0  0
   -0.0241    3.4795    0.3907 Br  0  0  0  0  0  0  0  0  0  0  0  0
   -2.5542    2.2383    0.6192 C   0  0  0  0  0  0  0  0  0  0  0  0
   -5.2657    1.4701    1.0334 Br  0  0  0  0  0  0  0  0  0  0  0  0
    1.8430    0.1430   -1.9768 C   0  0  0  0  0  0  0  0  0  0  0  0
    2.4287   -1.3632   -0.1625 C   0  0  0  0  0  0  0  0  0  0  0  0
    2.6861    1.1582   -1.3615 C   0  0  0  0  0  0  0  0  0  0  0  0
    3.2634   -0.4484    0.3660 C   0  0  0  0  0  0  0  0  0  0  0  0
    3.3671    0.8717   -0.2365 C   0  0  0  0  0  0  0  0  0  0  0  0
    4.3751    2.0424    0.5190 Cl  0  0  0  0  0  0  0  0  0  0  0  0
  1  2  1  0
  1  3  1  0
  1  4  2  0
  5  3  1  0
  5  6  1  0
  5  7  2  0
  6  8  2  0
  9  6  1  0
  8 10  1  0
 11  9  2  0
  9 12  1  0
 10 13  1  0
 10 14  2  0
 14 11  1  0
 11 15  1  0
  2 16  2  0
 17  2  1  0
 16 18  1  0
 19 17  2  0
 18 20  2  0
 20 19  1  0
 20 21  1  0
M  END
>  <ID>  (57) 


>  <MolWt>  (57) 
430.855945

>  <LogP>  (57) 
4.1408

>  <NumHDonors>  (57) 
2

>  <NumHAcceptors>  (57) 
3

$$$$

     RDKit          3D

 21 22  0  0  0  0  0  0  0  0999 V2000
    0.6010   -1.3462    2.0850 C   0  0  0  0  0  0  0  0  0  0  0  0
    1.4439   -1.4886    0.8677 C   0  0  0  0  0  0  0  0  0  0  0  0
    0.3228   -0.0465    2.4145 N   0  0  0  0  0  0  0  0  0  0  0  0
    0.2957   -2.3055    2.7816 O   0  0  0  0  0  0  0  0  0  0  0  0
   -0.9011    0.4476    2.0530 C   0  0  0  0  0  0  0  0  0  0  0  0
   -1.0414    0.7901    0.6125 C   0  0  0  0  0  0  0  0  0  0  0  0
   -1.7694    0.7152    2.8764 O   0  0  0  0  0  0  0  0  0  0  0  0
   -0.5661    2.0001    0.2543 C   0  0  0  0  0  0  0  0  0  0  0  0
   -2.0972    0.1780   -0.1826 C   0  0  0  0  0  0  0  0  0  0  0  0
   -1.3428    2.8370   -0.6491 C   0  0  0  0  0  0  0  0  0  0  0  0
   -2.7714    0.9169   -1.0906 C   0  0  0  0  0  0  0  0  0  0  0  0
   -2.3160   -1.1601    0.0496 O   0  0  0  0  0  0  0  0  0  0  0  0
   -0.7929    4.5999   -0.8950 Br  0  0  0  0  0  0  0  0  0  0  0  0
   -2.4045    2.3139   -1.2923 C   0  0  0  0  0  0  0  0  0  0  0  0
   -4.1401    0.2206   -2.1510 Br  0  0  0  0  0  0  0  0  0  0  0  0
    0.8823   -2.0341   -0.2279 C   0  0  0  0  0  0  0  0  0  0  0  0
    2.7564   -0.8646    0.7698 C   0  0  0  0  0  0  0  0  0  0  0  0
    1.4318   -1.7311   -1.5409 C   0  0  0  0  0  0  0  0  0  0  0  0
    3.3026   -0.6490   -0.4421 C   0  0  0  0  0  0  0  0  0  0  0  0
    2.5961   -1.0616   -1.6492 C   0  0  0  0  0  0  0  0  0  0  0  0
    3.3604   -0.6458   -3.2967 Br  0  0  0  0  0  0  0  0  0  0  0  0
  1  2  1  0
  1  3  1  0
  1  4  2  0
  5  3  1  0
  5  6  1  0
  5  7  2  0
  6  8  2  0
  9  6  1  0
  8 10  1  0
 11  9  2  0
  9 12  1  0
 10 13  1  0
 10 14  2  0
 14 11  1  0
 11 15  1  0
  2 16  2  0
 17  2  1  0
 16 18  1  0
 19 17  2  0
 18 20  2  0
 20 19  1  0
 20 21  1  0
M  END
>  <ID>  (58) 


>  <MolWt>  (58) 
474.805429

>  <LogP>  (58) 
4.2499

>  <NumHDonors>  (58) 
2

>  <NumHAcceptors>  (58) 
3

$$$$

     RDKit          3D

 21 22  0  0  0  0  0  0  0  0999 V2000
   -1.0223   -0.6872   -1.4687 C   0  0  0  0  0  0  0  0  0  0  0  0
   -1.8492   -0.0243   -0.4327 C   0  0  0  0  0  0  0  0  0  0  0  0
   -0.0801    0.1543   -1.9978 N   0  0  0  0  0  0  0  0  0  0  0  0
   -1.1833   -1.8591   -1.7861 O   0  0  0  0  0  0  0  0  0  0  0  0
    1.2012   -0.3095   -2.0922 C   0  0  0  0  0  0  0  0  0  0  0  0
    1.8727   -0.5572   -0.7919 C   0  0  0  0  0  0  0  0  0  0  0  0
    1.7726   -0.4733   -3.1647 O   0  0  0  0  0  0  0  0  0  0  0  0
    2.0473   -1.8440   -0.4297 C   0  0  0  0  0  0  0  0  0  0  0  0
    2.4418    0.5166    0.0078 C   0  0  0  0  0  0  0  0  0  0  0  0
    2.8279   -2.1633    0.7556 C   0  0  0  0  0  0  0  0  0  0  0  0
    3.1655    0.2224    1.1097 C   0  0  0  0  0  0  0  0  0  0  0  0
    2.1808    1.7971   -0.4258 O   0  0  0  0  0  0  0  0  0  0  0  0
    3.0441   -3.9594    1.2024 Br  0  0  0  0  0  0  0  0  0  0  0  0
    3.3647   -1.1705    1.4907 C   0  0  0  0  0  0  0  0  0  0  0  0
    3.9246    1.5330    2.2019 Br  0  0  0  0  0  0  0  0  0  0  0  0
   -1.6652   -0.4013    0.8487 C   0  0  0  0  0  0  0  0  0  0  0  0
   -2.8121    1.0194   -0.7580 C   0  0  0  0  0  0  0  0  0  0  0  0
   -2.3872    0.2805    1.9111 C   0  0  0  0  0  0  0  0  0  0  0  0
   -3.4925    1.6363    0.2270 C   0  0  0  0  0  0  0  0  0  0  0  0
   -2.9597    1.3224   -2.0904 O   0  0  0  0  0  0  0  0  0  0  0  0
   -3.2656    1.2545    1.6123 C   0  0  0  0  0  0  0  0  0  0  0  0
  1  2  1  0
  1  3  1  0
  1  4  2  0
  5  3  1  0
  5  6  1  0
  5  7  2  0
  6  8  2  0
  9  6  1  0
  8 10  1  0
 11  9  2  0
  9 12  1  0
 10 13  1  0
 10 14  2  0
 14 11  1  0
 11 15  1  0
  2 16  2  0
 17  2  1  0
 16 18  1  0
 19 17  2  0
 17 20  1  0
 18 21  2  0
 21 19  1  0
M  END
>  <ID>  (59) 


>  <MolWt>  (59) 
412.889832

>  <LogP>  (59) 
3.193

>  <NumHDonors>  (59) 
3

>  <NumHAcceptors>  (59) 
4

$$$$

     RDKit          3D

 21 22  0  0  0  0  0  0  0  0999 V2000
   -0.9387    0.6729   -2.0062 C   0  0  0  0  0  0  0  0  0  0  0  0
   -1.8618   -0.0013   -1.0682 C   0  0  0  0  0  0  0  0  0  0  0  0
    0.3720    0.6910   -1.6177 N   0  0  0  0  0  0  0  0  0  0  0  0
   -1.3155    1.1290   -3.0792 O   0  0  0  0  0  0  0  0  0  0  0  0
    0.7043    1.5606   -0.6164 C   0  0  0  0  0  0  0  0  0  0  0  0
    1.4795    0.9403    0.4849 C   0  0  0  0  0  0  0  0  0  0  0  0
    0.5133    2.7703   -0.6276 O   0  0  0  0  0  0  0  0  0  0  0  0
    0.8718    0.0289    1.2678 C   0  0  0  0  0  0  0  0  0  0  0  0
    2.9348    1.0275    0.4867 C   0  0  0  0  0  0  0  0  0  0  0  0
    1.6216   -1.1479    1.6802 C   0  0  0  0  0  0  0  0  0  0  0  0
    3.6574   -0.0048    0.9737 C   0  0  0  0  0  0  0  0  0  0  0  0
    3.5011    2.1914    0.0099 O   0  0  0  0  0  0  0  0  0  0  0  0
    0.6763   -2.5645    2.4317 Br  0  0  0  0  0  0  0  0  0  0  0  0
    2.9611   -1.1621    1.5340 C   0  0  0  0  0  0  0  0  0  0  0  0
    5.5235   -0.0295    1.0193 Br  0  0  0  0  0  0  0  0  0  0  0  0
   -2.6526    0.7610   -0.2866 C   0  0  0  0  0  0  0  0  0  0  0  0
   -1.8361   -1.4390   -0.8911 C   0  0  0  0  0  0  0  0  0  0  0  0
   -3.3563    0.1497    0.8317 C   0  0  0  0  0  0  0  0  0  0  0  0
   -2.5165   -2.0116    0.1154 C   0  0  0  0  0  0  0  0  0  0  0  0
   -1.1033   -2.1909   -1.7361 F   0  0  0  0  0  0  0  0  0  0  0  0
   -3.2932   -1.1814    1.0226 C   0  0  0  0  0  0  0  0  0  0  0  0
  1  2  1  0
  1  3  1  0
  1  4  2  0
  5  3  1  0
  5  6  1  0
  5  7  2  0
  6  8  2  0
  9  6  1  0
  8 10  1  0
 11  9  2  0
  9 12  1  0
 10 13  1  0
 10 14  2  0
 14 11  1  0
 11 15  1  0
  2 16  2  0
 17  2  1  0
 16 18  1  0
 19 17  2  0
 17 20  1  0
 18 21  2  0
 21 19  1  0
M  END
>  <ID>  (60) 


>  <MolWt>  (60) 
414.885496

>  <LogP>  (60) 
3.6265

>  <NumHDonors>  (60) 
2

>  <NumHAcceptors>  (60) 
3

$$$$

     RDKit          3D

 21 22  0  0  0  0  0  0  0  0999 V2000
   -0.8098   -1.7018   -1.2535 C   0  0  0  0  0  0  0  0  0  0  0  0
   -1.6854   -1.3799   -0.0975 C   0  0  0  0  0  0  0  0  0  0  0  0
   -0.4905   -0.6054   -2.0108 N   0  0  0  0  0  0  0  0  0  0  0  0
   -0.5144   -2.8537   -1.5400 O   0  0  0  0  0  0  0  0  0  0  0  0
    0.8196   -0.2101   -2.0044 C   0  0  0  0  0  0  0  0  0  0  0  0
    1.2437    0.5324   -0.7872 C   0  0  0  0  0  0  0  0  0  0  0  0
    1.5545   -0.3416   -2.9771 O   0  0  0  0  0  0  0  0  0  0  0  0
    1.0511    1.8673   -0.8257 C   0  0  0  0  0  0  0  0  0  0  0  0
    2.3033   -0.0069    0.0561 C   0  0  0  0  0  0  0  0  0  0  0  0
    2.1120    2.7566   -0.3715 C   0  0  0  0  0  0  0  0  0  0  0  0
    3.2450    0.8161    0.5681 C   0  0  0  0  0  0  0  0  0  0  0  0
    2.2428   -1.3616    0.2868 O   0  0  0  0  0  0  0  0  0  0  0  0
    1.9269    4.5788   -0.7117 Br  0  0  0  0  0  0  0  0  0  0  0  0
    3.1642    2.2484    0.2996 C   0  0  0  0  0  0  0  0  0  0  0  0
    4.6442    0.2111    1.6471 Br  0  0  0  0  0  0  0  0  0  0  0  0
   -3.0084   -1.2299   -0.3184 C   0  0  0  0  0  0  0  0  0  0  0  0
   -1.1393   -1.1621    1.2370 C   0  0  0  0  0  0  0  0  0  0  0  0
   -3.8181   -0.5405    0.6765 C   0  0  0  0  0  0  0  0  0  0  0  0
   -1.9073   -0.5871    2.1809 C   0  0  0  0  0  0  0  0  0  0  0  0
   -3.2791   -0.2315    1.8684 C   0  0  0  0  0  0  0  0  0  0  0  0
   -4.0103    0.3891    2.8151 F   0  0  0  0  0  0  0  0  0  0  0  0
  1  2  1  0
  1  3  1  0
  1  4  2  0
  5  3  1  0
  5  6  1  0
  5  7  2  0
  6  8  2  0
  9  6  1  0
  8 10  1  0
 11  9  2  0
  9 12  1  0
 10 13  1  0
 10 14  2  0
 14 11  1  0
 11 15  1  0
  2 16  2  0
 17  2  1  0
 16 18  1  0
 19 17  2  0
 18 20  2  0
 20 19  1  0
 20 21  1  0
M  END
>  <ID>  (61) 


>  <MolWt>  (61) 
414.885496

>  <LogP>  (61) 
3.6265

>  <NumHDonors>  (61) 
2

>  <NumHAcceptors>  (61) 
3

$$$$

     RDKit          3D

 20 21  0  0  0  0  0  0  0  0999 V2000
    0.7590   -2.3250    0.2107 C   0  0  0  0  0  0  0  0  0  0  0  0
    1.4811   -1.2999    1.0090 C   0  0  0  0  0  0  0  0  0  0  0  0
    0.5949   -1.9800   -1.1047 N   0  0  0  0  0  0  0  0  0  0  0  0
    0.4554   -3.4174    0.6719 O   0  0  0  0  0  0  0  0  0  0  0  0
   -0.6343   -1.5201   -1.4909 C   0  0  0  0  0  0  0  0  0  0  0  0
   -0.9687   -0.1464   -1.0327 C   0  0  0  0  0  0  0  0  0  0  0  0
   -1.3520   -2.1431   -2.2662 O   0  0  0  0  0  0  0  0  0  0  0  0
   -0.4998    0.8602   -1.7979 C   0  0  0  0  0  0  0  0  0  0  0  0
   -2.1397    0.0783   -0.1966 C   0  0  0  0  0  0  0  0  0  0  0  0
   -1.3455    2.0150   -2.0614 C   0  0  0  0  0  0  0  0  0  0  0  0
   -2.8917    1.1862   -0.3732 C   0  0  0  0  0  0  0  0  0  0  0  0
   -2.3819   -0.8844    0.7560 O   0  0  0  0  0  0  0  0  0  0  0  0
   -0.7639    3.2526   -3.3268 Br  0  0  0  0  0  0  0  0  0  0  0  0
   -2.4963    2.1673   -1.3772 C   0  0  0  0  0  0  0  0  0  0  0  0
   -4.4130    1.5519    0.6453 Br  0  0  0  0  0  0  0  0  0  0  0  0
    0.7851   -0.6124    1.9351 C   0  0  0  0  0  0  0  0  0  0  0  0
    2.8316   -0.8776    0.6602 C   0  0  0  0  0  0  0  0  0  0  0  0
    1.2408    0.7094    2.3340 C   0  0  0  0  0  0  0  0  0  0  0  0
    3.2886    0.3116    1.0942 C   0  0  0  0  0  0  0  0  0  0  0  0
    2.4444    1.1530    1.9277 C   0  0  0  0  0  0  0  0  0  0  0  0
  1  2  1  0
  1  3  1  0
  1  4  2  0
  5  3  1  0
  5  6  1  0
  5  7  2  0
  6  8  2  0
  9  6  1  0
  8 10  1  0
 11  9  2  0
  9 12  1  0
 10 13  1  0
 10 14  2  0
 14 11  1  0
 11 15  1  0
  2 16  2  0
 17  2  1  0
 16 18  1  0
 19 17  2  0
 18 20  2  0
 20 19  1  0
M  END
>  <ID>  (62) 


>  <MolWt>  (62) 
396.894917

>  <LogP>  (62) 
3.4874

>  <NumHDonors>  (62) 
2

>  <NumHAcceptors>  (62) 
3

$$$$

     RDKit          3D

 22 23  0  0  0  0  0  0  0  0999 V2000
    0.8231   -0.7330    2.2656 C   0  0  0  0  0  0  0  0  0  0  0  0
    1.7543   -0.7760    1.1167 C   0  0  0  0  0  0  0  0  0  0  0  0
   -0.4664   -0.4048    1.9532 N   0  0  0  0  0  0  0  0  0  0  0  0
    1.1749   -1.0269    3.4015 O   0  0  0  0  0  0  0  0  0  0  0  0
   -0.7117    0.9058    1.6497 C   0  0  0  0  0  0  0  0  0  0  0  0
   -1.4621    1.0958    0.3852 C   0  0  0  0  0  0  0  0  0  0  0  0
   -0.4560    1.8651    2.3661 O   0  0  0  0  0  0  0  0  0  0  0  0
   -0.8297    0.8310   -0.7737 C   0  0  0  0  0  0  0  0  0  0  0  0
   -2.9182    1.1559    0.4066 C   0  0  0  0  0  0  0  0  0  0  0  0
   -1.5520    0.1128   -1.8128 C   0  0  0  0  0  0  0  0  0  0  0  0
   -3.6163    0.6014   -0.6083 C   0  0  0  0  0  0  0  0  0  0  0  0
   -3.5096    1.8110    1.4661 O   0  0  0  0  0  0  0  0  0  0  0  0
   -0.5707   -0.5830   -3.2329 Br  0  0  0  0  0  0  0  0  0  0  0  0
   -2.8924    0.0015   -1.7284 C   0  0  0  0  0  0  0  0  0  0  0  0
   -5.4809    0.5918   -0.6958 Br  0  0  0  0  0  0  0  0  0  0  0  0
    2.6344    0.2347    0.9626 C   0  0  0  0  0  0  0  0  0  0  0  0
    1.6967   -1.8481    0.1411 C   0  0  0  0  0  0  0  0  0  0  0  0
    3.4416    0.2988   -0.2483 C   0  0  0  0  0  0  0  0  0  0  0  0
    2.4620   -1.8073   -0.9615 C   0  0  0  0  0  0  0  0  0  0  0  0
    0.8467   -2.8739    0.3452 F   0  0  0  0  0  0  0  0  0  0  0  0
    3.3546   -0.6851   -1.1593 C   0  0  0  0  0  0  0  0  0  0  0  0
    4.0977   -0.6501   -2.2817 F   0  0  0  0  0  0  0  0  0  0  0  0
  1  2  1  0
  1  3  1  0
  1  4  2  0
  5  3  1  0
  5  6  1  0
  5  7  2  0
  6  8  2  0
  9  6  1  0
  8 10  1  0
 11  9  2  0
  9 12  1  0
 10 13  1  0
 10 14  2  0
 14 11  1  0
 11 15  1  0
  2 16  2  0
 17  2  1  0
 16 18  1  0
 19 17  2  0
 17 20  1  0
 18 21  2  0
 21 19  1  0
 21 22  1  0
M  END
>  <ID>  (63) 


>  <MolWt>  (63) 
432.876074

>  <LogP>  (63) 
3.7656

>  <NumHDonors>  (63) 
2

>  <NumHAcceptors>  (63) 
3

$$$$

     RDKit          3D

 12 12  0  0  0  0  0  0  0  0999 V2000
    1.1319   -0.8050   -0.1755 C   0  0  0  0  0  0  0  0  0  0  0  0
   -0.2061   -0.1852   -0.1302 C   0  0  0  0  0  0  0  0  0  0  0  0
    1.9108   -0.3868    0.8495 O   0  0  0  0  0  0  0  0  0  0  0  0
    1.4364   -1.6447   -1.0120 O   0  0  0  0  0  0  0  0  0  0  0  0
    3.2448   -0.0936    0.4393 C   0  0  0  0  0  0  0  0  0  0  0  0
   -0.3176    1.1485    0.0371 C   0  0  0  0  0  0  0  0  0  0  0  0
   -1.4050   -1.0129   -0.0707 C   0  0  0  0  0  0  0  0  0  0  0  0
   -1.5164    1.6978    0.6675 C   0  0  0  0  0  0  0  0  0  0  0  0
   -2.5452   -0.4950    0.4154 C   0  0  0  0  0  0  0  0  0  0  0  0
   -1.3574   -2.2985   -0.5627 O   0  0  0  0  0  0  0  0  0  0  0  0
   -1.5697    3.6792    1.2322 I   0  0  0  0  0  0  0  0  0  0  0  0
   -2.5850    0.8937    0.8497 C   0  0  0  0  0  0  0  0  0  0  0  0
  1  2  1  0
  1  3  1  0
  1  4  2  0
  3  5  1  0
  2  6  2  0
  7  2  1  0
  6  8  1  0
  9  7  2  0
  7 10  1  0
  8 11  1  0
  8 12  2  0
 12  9  1  0
M  END
>  <ID>  (64) 


>  <MolWt>  (64) 
277.943992

>  <LogP>  (64) 
1.7834

>  <NumHDonors>  (64) 
1

>  <NumHAcceptors>  (64) 
3

$$$$

     RDKit          3D

 11 11  0  0  0  0  0  0  0  0999 V2000
    1.3305    0.4211   -0.7378 C   0  0  0  0  0  0  0  0  0  0  0  0
   -0.0888    0.0348   -0.8471 C   0  0  0  0  0  0  0  0  0  0  0  0
    1.6252    0.7300    0.5500 O   0  0  0  0  0  0  0  0  0  0  0  0
    2.0968    0.4949   -1.6855 O   0  0  0  0  0  0  0  0  0  0  0  0
    2.9211    0.2807    0.9409 C   0  0  0  0  0  0  0  0  0  0  0  0
   -0.9562    1.0349   -1.1060 C   0  0  0  0  0  0  0  0  0  0  0  0
   -0.5865   -1.2596   -0.3907 C   0  0  0  0  0  0  0  0  0  0  0  0
   -2.3155    0.9491   -0.5999 C   0  0  0  0  0  0  0  0  0  0  0  0
   -1.8754   -1.3607   -0.0049 C   0  0  0  0  0  0  0  0  0  0  0  0
    0.5428   -2.7452   -0.4099 Br  0  0  0  0  0  0  0  0  0  0  0  0
   -2.7557   -0.2038   -0.0659 C   0  0  0  0  0  0  0  0  0  0  0  0
  1  2  1  0
  1  3  1  0
  1  4  2  0
  3  5  1  0
  2  6  2  0
  7  2  1  0
  6  8  1  0
  9  7  2  0
  7 10  1  0
  8 11  2  0
 11  9  1  0
M  END
>  <ID>  (65) 


>  <MolWt>  (65) 
213.962942

>  <LogP>  (65) 
2.2357

>  <NumHDonors>  (65) 
0

>  <NumHAcceptors>  (65) 
2

$$$$

     RDKit          3D

 11 11  0  0  0  0  0  0  0  0999 V2000
    1.0770    0.8393   -0.1198 C   0  0  0  0  0  0  0  0  0  0  0  0
   -0.1716    0.0991    0.1410 C   0  0  0  0  0  0  0  0  0  0  0  0
    2.0263    0.4228    0.7557 O   0  0  0  0  0  0  0  0  0  0  0  0
    1.2217    1.6796   -0.9926 O   0  0  0  0  0  0  0  0  0  0  0  0
    3.3214    0.3360    0.1651 C   0  0  0  0  0  0  0  0  0  0  0  0
   -0.4156   -0.9655   -0.6517 C   0  0  0  0  0  0  0  0  0  0  0  0
   -1.2562    0.6919    0.9112 C   0  0  0  0  0  0  0  0  0  0  0  0
   -1.7879   -1.3650   -0.9189 C   0  0  0  0  0  0  0  0  0  0  0  0
   -2.5215    0.2766    0.7089 C   0  0  0  0  0  0  0  0  0  0  0  0
   -0.9117    1.8809    2.1109 Cl  0  0  0  0  0  0  0  0  0  0  0  0
   -2.7999   -0.7656   -0.2668 C   0  0  0  0  0  0  0  0  0  0  0  0
  1  2  1  0
  1  3  1  0
  1  4  2  0
  3  5  1  0
  2  6  2  0
  7  2  1  0
  6  8  1  0
  9  7  2  0
  7 10  1  0
  8 11  2  0
 11  9  1  0
M  END
>  <ID>  (66) 


>  <MolWt>  (66) 
170.013457

>  <LogP>  (66) 
2.1266

>  <NumHDonors>  (66) 
0

>  <NumHAcceptors>  (66) 
2

$$$$

     RDKit          3D

 12 12  0  0  0  0  0  0  0  0999 V2000
    1.2780    0.1274   -0.5611 C   0  0  0  0  0  0  0  0  0  0  0  0
   -0.0849   -0.1852   -0.0896 C   0  0  0  0  0  0  0  0  0  0  0  0
    2.1751   -0.5290    0.2158 O   0  0  0  0  0  0  0  0  0  0  0  0
    1.5382    0.8275   -1.5256 O   0  0  0  0  0  0  0  0  0  0  0  0
    3.3180    0.2674    0.5235 C   0  0  0  0  0  0  0  0  0  0  0  0
   -0.7170   -1.1939   -0.7252 C   0  0  0  0  0  0  0  0  0  0  0  0
   -0.8569    0.7747    0.6880 C   0  0  0  0  0  0  0  0  0  0  0  0
   -2.1678   -1.1760   -0.8387 C   0  0  0  0  0  0  0  0  0  0  0  0
   -2.2026    0.7533    0.6337 C   0  0  0  0  0  0  0  0  0  0  0  0
   -0.0460    1.8966    1.7157 Cl  0  0  0  0  0  0  0  0  0  0  0  0
   -2.8783   -0.2375   -0.1876 C   0  0  0  0  0  0  0  0  0  0  0  0
   -4.5951   -0.1908   -0.2856 Cl  0  0  0  0  0  0  0  0  0  0  0  0
  1  2  1  0
  1  3  1  0
  1  4  2  0
  3  5  1  0
  2  6  2  0
  7  2  1  0
  6  8  1  0
  9  7  2  0
  7 10  1  0
  8 11  2  0
 11  9  1  0
 11 12  1  0
M  END
>  <ID>  (67) 


>  <MolWt>  (67) 
203.974485

>  <LogP>  (67) 
2.78

>  <NumHDonors>  (67) 
0

>  <NumHAcceptors>  (67) 
2

$$$$

     RDKit          3D

 11 11  0  0  0  0  0  0  0  0999 V2000
    1.2455   -0.7646   -0.5687 C   0  0  0  0  0  0  0  0  0  0  0  0
   -0.1162   -0.4186   -0.1142 C   0  0  0  0  0  0  0  0  0  0  0  0
    1.8170    0.3210   -1.1452 O   0  0  0  0  0  0  0  0  0  0  0  0
    1.7595   -1.8639   -0.4452 O   0  0  0  0  0  0  0  0  0  0  0  0
    3.1261    0.5743   -0.6410 C   0  0  0  0  0  0  0  0  0  0  0  0
   -1.1406   -0.5758   -0.9757 C   0  0  0  0  0  0  0  0  0  0  0  0
   -0.3622    0.0464    1.2438 C   0  0  0  0  0  0  0  0  0  0  0  0
   -2.4860   -0.1913   -0.5724 C   0  0  0  0  0  0  0  0  0  0  0  0
   -1.6115    0.3786    1.6203 C   0  0  0  0  0  0  0  0  0  0  0  0
   -2.7094    0.2660    0.6732 C   0  0  0  0  0  0  0  0  0  0  0  0
   -4.2865    0.7242    1.1865 Cl  0  0  0  0  0  0  0  0  0  0  0  0
  1  2  1  0
  1  3  1  0
  1  4  2  0
  3  5  1  0
  2  6  2  0
  7  2  1  0
  6  8  1  0
  9  7  2  0
  8 10  2  0
 10  9  1  0
 10 11  1  0
M  END
>  <ID>  (68) 


>  <MolWt>  (68) 
170.013457

>  <LogP>  (68) 
2.1266

>  <NumHDonors>  (68) 
0

>  <NumHAcceptors>  (68) 
2

$$$$

     RDKit          3D

 11 11  0  0  0  0  0  0  0  0999 V2000
    1.4529   -0.6629   -0.0208 C   0  0  0  0  0  0  0  0  0  0  0  0
   -0.0016   -0.4659   -0.1831 C   0  0  0  0  0  0  0  0  0  0  0  0
    1.8781    0.0019    1.0814 O   0  0  0  0  0  0  0  0  0  0  0  0
    2.1495   -1.3351   -0.7631 O   0  0  0  0  0  0  0  0  0  0  0  0
    2.9969    0.8410    0.8058 C   0  0  0  0  0  0  0  0  0  0  0  0
   -0.4300    0.4086   -1.1140 C   0  0  0  0  0  0  0  0  0  0  0  0
   -0.9603   -1.1884    0.6395 C   0  0  0  0  0  0  0  0  0  0  0  0
   -1.8493    0.7191   -1.2097 C   0  0  0  0  0  0  0  0  0  0  0  0
   -2.2750   -0.9223    0.5249 C   0  0  0  0  0  0  0  0  0  0  0  0
   -2.7400    0.0801   -0.4262 C   0  0  0  0  0  0  0  0  0  0  0  0
   -4.5695    0.4236   -0.5116 Br  0  0  0  0  0  0  0  0  0  0  0  0
  1  2  1  0
  1  3  1  0
  1  4  2  0
  3  5  1  0
  2  6  2  0
  7  2  1  0
  6  8  1  0
  9  7  2  0
  8 10  2  0
 10  9  1  0
 10 11  1  0
M  END
>  <ID>  (69) 


>  <MolWt>  (69) 
213.962942

>  <LogP>  (69) 
2.2357

>  <NumHDonors>  (69) 
0

>  <NumHAcceptors>  (69) 
2

$$$$

     RDKit          3D

 12 12  0  0  0  0  0  0  0  0999 V2000
   -1.3606   -0.3879   -0.5779 C   0  0  0  0  0  0  0  0  0  0  0  0
    0.0731   -0.1344   -0.3661 C   0  0  0  0  0  0  0  0  0  0  0  0
   -1.8567   -1.0797    0.4769 O   0  0  0  0  0  0  0  0  0  0  0  0
   -1.9843   -0.0606   -1.5740 O   0  0  0  0  0  0  0  0  0  0  0  0
   -3.0258   -0.4669    1.0165 C   0  0  0  0  0  0  0  0  0  0  0  0
    0.9700   -0.9346   -0.9791 C   0  0  0  0  0  0  0  0  0  0  0  0
    0.5198    1.0375    0.3615 C   0  0  0  0  0  0  0  0  0  0  0  0
    2.3881   -0.6082   -0.9053 C   0  0  0  0  0  0  0  0  0  0  0  0
    1.8263    1.3408    0.4318 C   0  0  0  0  0  0  0  0  0  0  0  0
   -0.3945    1.8137    0.9771 F   0  0  0  0  0  0  0  0  0  0  0  0
    2.7860    0.4828   -0.2297 C   0  0  0  0  0  0  0  0  0  0  0  0
    4.0916    0.8041   -0.1497 F   0  0  0  0  0  0  0  0  0  0  0  0
  1  2  1  0
  1  3  1  0
  1  4  2  0
  3  5  1  0
  2  6  2  0
  7  2  1  0
  6  8  1  0
  9  7  2  0
  7 10  1  0
  8 11  2  0
 11  9  1  0
 11 12  1  0
M  END
>  <ID>  (70) 


>  <MolWt>  (70) 
172.033586

>  <LogP>  (70) 
1.7514

>  <NumHDonors>  (70) 
0

>  <NumHAcceptors>  (70) 
2

$$$$

     RDKit          3D

 13 13  0  0  0  0  0  0  0  0999 V2000
   -2.6077   -0.4246    0.0552 C   0  0  0  0  0  0  0  0  0  0  0  0
   -1.1378   -0.5321   -0.3044 C   0  0  0  0  0  0  0  0  0  0  0  0
   -2.8467    0.4973    1.2546 C   0  0  0  0  0  0  0  0  0  0  0  0
   -3.4583    0.0069   -1.1425 C   0  0  0  0  0  0  0  0  0  0  0  0
   -0.4726   -1.7070   -0.2563 C   0  0  0  0  0  0  0  0  0  0  0  0
   -0.3890    0.6787   -0.6493 C   0  0  0  0  0  0  0  0  0  0  0  0
    0.9814   -1.7362   -0.2859 C   0  0  0  0  0  0  0  0  0  0  0  0
    0.9548    0.6528   -0.7108 C   0  0  0  0  0  0  0  0  0  0  0  0
    1.6649   -0.5868   -0.4427 C   0  0  0  0  0  0  0  0  0  0  0  0
    3.1352   -0.6173   -0.3230 C   0  0  0  0  0  0  0  0  0  0  0  0
    3.4899   -0.4652    0.9768 O   0  0  0  0  0  0  0  0  0  0  0  0
    3.9043   -0.7646   -1.2588 O   0  0  0  0  0  0  0  0  0  0  0  0
    4.4355    0.5857    1.1561 C   0  0  0  0  0  0  0  0  0  0  0  0
  1  2  1  0
  1  3  1  0
  1  4  1  0
  5  2  2  0
  2  6  1  0
  7  5  1  0
  6  8  2  0
  9  7  2  0
  8  9  1  0
 10  9  1  0
 10 11  1  0
 10 12  2  0
 11 13  1  0
M  END
>  <ID>  (71) 


>  <MolWt>  (71) 
178.09938

>  <LogP>  (71) 
2.5966

>  <NumHDonors>  (71) 
0

>  <NumHAcceptors>  (71) 
2

$$$$

     RDKit          3D

 18 19  0  0  0  0  0  0  0  0999 V2000
   -0.5415   -0.1151   -0.3065 C   0  0  0  0  0  0  0  0  0  0  0  0
   -1.9910   -0.3127   -0.3852 C   0  0  0  0  0  0  0  0  0  0  0  0
    0.2424   -1.1034    0.1821 C   0  0  0  0  0  0  0  0  0  0  0  0
    0.1041    1.1529   -0.6674 C   0  0  0  0  0  0  0  0  0  0  0  0
    1.5986   -0.8243    0.6295 C   0  0  0  0  0  0  0  0  0  0  0  0
    1.3888    1.3892   -0.3453 C   0  0  0  0  0  0  0  0  0  0  0  0
    2.1570    0.3685    0.3489 C   0  0  0  0  0  0  0  0  0  0  0  0
    3.5266    0.6369    0.8295 C   0  0  0  0  0  0  0  0  0  0  0  0
    4.4211    0.2024   -0.0924 O   0  0  0  0  0  0  0  0  0  0  0  0
    3.8005    1.1628    1.8957 O   0  0  0  0  0  0  0  0  0  0  0  0
    5.3702    1.2084   -0.4364 C   0  0  0  0  0  0  0  0  0  0  0  0
   -2.7445   -0.0223    0.7015 C   0  0  0  0  0  0  0  0  0  0  0  0
   -2.6806   -0.8577   -1.5627 C   0  0  0  0  0  0  0  0  0  0  0  0
   -4.1262   -0.4801    0.8117 C   0  0  0  0  0  0  0  0  0  0  0  0
   -3.9748   -1.2194   -1.4979 C   0  0  0  0  0  0  0  0  0  0  0  0
   -1.9257   -0.9611   -2.7067 O   0  0  0  0  0  0  0  0  0  0  0  0
   -5.1669   -0.2173    2.5734 I   0  0  0  0  0  0  0  0  0  0  0  0
   -4.7118   -1.0563   -0.2566 C   0  0  0  0  0  0  0  0  0  0  0  0
  1  2  1  0
  3  1  2  0
  1  4  1  0
  5  3  1  0
  4  6  2  0
  7  5  2  0
  6  7  1  0
  8  7  1  0
  8  9  1  0
  8 10  2  0
  9 11  1  0
  2 12  2  0
 13  2  1  0
 12 14  1  0
 15 13  2  0
 13 16  1  0
 14 17  1  0
 14 18  2  0
 18 15  1  0
M  END
>  <ID>  (72) 


>  <MolWt>  (72) 
353.975292

>  <LogP>  (72) 
3.4504

>  <NumHDonors>  (72) 
1

>  <NumHAcceptors>  (72) 
3

$$$$

     RDKit          3D

 17 18  0  0  0  0  0  0  0  0999 V2000
   -0.6422    0.1822    0.1525 C   0  0  0  0  0  0  0  0  0  0  0  0
   -2.0693    0.4839    0.0011 C   0  0  0  0  0  0  0  0  0  0  0  0
    0.2637    1.1841    0.0700 C   0  0  0  0  0  0  0  0  0  0  0  0
   -0.1460   -1.1802    0.3860 C   0  0  0  0  0  0  0  0  0  0  0  0
    1.6850    0.9296    0.2509 C   0  0  0  0  0  0  0  0  0  0  0  0
    1.1708   -1.4274    0.5039 C   0  0  0  0  0  0  0  0  0  0  0  0
    2.1224   -0.3351    0.3952 C   0  0  0  0  0  0  0  0  0  0  0  0
    3.5777   -0.5729    0.4632 C   0  0  0  0  0  0  0  0  0  0  0  0
    4.0081   -1.0887   -0.7143 O   0  0  0  0  0  0  0  0  0  0  0  0
    4.2736   -0.3508    1.4407 O   0  0  0  0  0  0  0  0  0  0  0  0
    5.0939   -0.3445   -1.2608 C   0  0  0  0  0  0  0  0  0  0  0  0
   -2.7843    0.7340    1.1232 C   0  0  0  0  0  0  0  0  0  0  0  0
   -2.8299    0.3072   -1.2540 C   0  0  0  0  0  0  0  0  0  0  0  0
   -4.1936    0.3909    1.1931 C   0  0  0  0  0  0  0  0  0  0  0  0
   -4.1620    0.0999   -1.2056 C   0  0  0  0  0  0  0  0  0  0  0  0
   -1.9325    0.4112   -2.8922 Br  0  0  0  0  0  0  0  0  0  0  0  0
   -4.8583    0.0803    0.0680 C   0  0  0  0  0  0  0  0  0  0  0  0
  1  2  1  0
  3  1  2  0
  1  4  1  0
  5  3  1  0
  4  6  2  0
  7  5  2  0
  6  7  1  0
  8  7  1  0
  8  9  1  0
  8 10  2  0
  9 11  1  0
  2 12  2  0
 13  2  1  0
 12 14  1  0
 15 13  2  0
 13 16  1  0
 14 17  2  0
 17 15  1  0
M  END
>  <ID>  (73) 


>  <MolWt>  (73) 
289.994242

>  <LogP>  (73) 
3.9027

>  <NumHDonors>  (73) 
0

>  <NumHAcceptors>  (73) 
2

$$$$

     RDKit          3D

 17 18  0  0  0  0  0  0  0  0999 V2000
   -0.0041   -0.4790   -0.0288 C   0  0  0  0  0  0  0  0  0  0  0  0
   -1.4040   -0.1107   -0.2369 C   0  0  0  0  0  0  0  0  0  0  0  0
    0.8563   -0.4381   -1.0723 C   0  0  0  0  0  0  0  0  0  0  0  0
    0.5272   -0.8394    1.2912 C   0  0  0  0  0  0  0  0  0  0  0  0
    2.2802   -0.6726   -0.8820 C   0  0  0  0  0  0  0  0  0  0  0  0
    1.8450   -1.0355    1.4770 C   0  0  0  0  0  0  0  0  0  0  0  0
    2.7593   -0.8869    0.3577 C   0  0  0  0  0  0  0  0  0  0  0  0
    4.2226   -0.9314    0.5464 C   0  0  0  0  0  0  0  0  0  0  0  0
    4.6474    0.2380    1.0851 O   0  0  0  0  0  0  0  0  0  0  0  0
    4.9297   -1.8864    0.2695 O   0  0  0  0  0  0  0  0  0  0  0  0
    5.6901    0.8339    0.3180 C   0  0  0  0  0  0  0  0  0  0  0  0
   -2.3105   -1.0714   -0.5243 C   0  0  0  0  0  0  0  0  0  0  0  0
   -1.8829    1.2689   -0.1175 C   0  0  0  0  0  0  0  0  0  0  0  0
   -3.7105   -0.7445   -0.7392 C   0  0  0  0  0  0  0  0  0  0  0  0
   -3.1789    1.5731   -0.3075 C   0  0  0  0  0  0  0  0  0  0  0  0
   -4.1402    0.5282   -0.6367 C   0  0  0  0  0  0  0  0  0  0  0  0
   -5.5653    0.9375   -0.8427 C   0  0  0  0  0  0  0  0  0  0  0  0
  1  2  1  0
  3  1  2  0
  1  4  1  0
  5  3  1  0
  4  6  2  0
  7  5  2  0
  6  7  1  0
  8  7  1  0
  8  9  1  0
  8 10  2  0
  9 11  1  0
  2 12  2  0
 13  2  1  0
 12 14  1  0
 15 13  2  0
 14 16  2  0
 16 15  1  0
 16 17  1  0
M  END
>  <ID>  (74) 


>  <MolWt>  (74) 
226.09938

>  <LogP>  (74) 
3.44862

>  <NumHDonors>  (74) 
0

>  <NumHAcceptors>  (74) 
2

$$$$

     RDKit          3D

 17 18  0  0  0  0  0  0  0  0999 V2000
   -0.7196    0.3755   -0.0675 C   0  0  0  0  0  0  0  0  0  0  0  0
   -2.0604   -0.2103   -0.1457 C   0  0  0  0  0  0  0  0  0  0  0  0
   -0.2155    0.7333    1.1363 C   0  0  0  0  0  0  0  0  0  0  0  0
    0.1392    0.5452   -1.2462 C   0  0  0  0  0  0  0  0  0  0  0  0
    1.2056    1.0045    1.2986 C   0  0  0  0  0  0  0  0  0  0  0  0
    1.4469    0.8302   -1.1092 C   0  0  0  0  0  0  0  0  0  0  0  0
    2.0126    0.9797    0.2212 C   0  0  0  0  0  0  0  0  0  0  0  0
    3.4708    1.0658    0.4304 C   0  0  0  0  0  0  0  0  0  0  0  0
    3.9797   -0.1795    0.5995 O   0  0  0  0  0  0  0  0  0  0  0  0
    4.1075    2.1063    0.4536 O   0  0  0  0  0  0  0  0  0  0  0  0
    5.0949   -0.4255   -0.2533 C   0  0  0  0  0  0  0  0  0  0  0  0
   -2.1842   -1.5514   -0.0040 C   0  0  0  0  0  0  0  0  0  0  0  0
   -3.3013    0.5696   -0.2987 C   0  0  0  0  0  0  0  0  0  0  0  0
   -3.4698   -2.1553    0.3013 C   0  0  0  0  0  0  0  0  0  0  0  0
   -4.5018   -0.0065   -0.0978 C   0  0  0  0  0  0  0  0  0  0  0  0
   -3.2157    2.2336   -0.7578 Cl  0  0  0  0  0  0  0  0  0  0  0  0
   -4.5872   -1.4114    0.2558 C   0  0  0  0  0  0  0  0  0  0  0  0
  1  2  1  0
  3  1  2  0
  1  4  1  0
  5  3  1  0
  4  6  2  0
  7  5  2  0
  6  7  1  0
  8  7  1  0
  8  9  1  0
  8 10  2  0
  9 11  1  0
  2 12  2  0
 13  2  1  0
 12 14  1  0
 15 13  2  0
 13 16  1  0
 14 17  2  0
 17 15  1  0
M  END
>  <ID>  (75) 


>  <MolWt>  (75) 
246.044757

>  <LogP>  (75) 
3.7936

>  <NumHDonors>  (75) 
0

>  <NumHAcceptors>  (75) 
2

$$$$

     RDKit          3D

 18 19  0  0  0  0  0  0  0  0999 V2000
   -0.6434    0.5021    0.1784 C   0  0  0  0  0  0  0  0  0  0  0  0
   -2.0433    0.0964    0.0295 C   0  0  0  0  0  0  0  0  0  0  0  0
   -0.1306    0.6932    1.4159 C   0  0  0  0  0  0  0  0  0  0  0  0
    0.2634    0.6505   -0.9668 C   0  0  0  0  0  0  0  0  0  0  0  0
    1.3096    0.7345    1.6263 C   0  0  0  0  0  0  0  0  0  0  0  0
    1.5937    0.7323   -0.7832 C   0  0  0  0  0  0  0  0  0  0  0  0
    2.1359    0.6837    0.5645 C   0  0  0  0  0  0  0  0  0  0  0  0
    3.5850    0.5425    0.8051 C   0  0  0  0  0  0  0  0  0  0  0  0
    3.9090   -0.7728    0.8630 O   0  0  0  0  0  0  0  0  0  0  0  0
    4.3595    1.4757    0.9380 O   0  0  0  0  0  0  0  0  0  0  0  0
    5.0137   -1.0932    0.0212 C   0  0  0  0  0  0  0  0  0  0  0  0
   -2.3337   -1.2260    0.0566 C   0  0  0  0  0  0  0  0  0  0  0  0
   -3.1743    1.0354   -0.0798 C   0  0  0  0  0  0  0  0  0  0  0  0
   -3.6947   -1.6873    0.2767 C   0  0  0  0  0  0  0  0  0  0  0  0
   -4.4430    0.6022    0.0468 C   0  0  0  0  0  0  0  0  0  0  0  0
   -2.8686    2.7080   -0.3899 Cl  0  0  0  0  0  0  0  0  0  0  0  0
   -4.7080   -0.8054    0.2712 C   0  0  0  0  0  0  0  0  0  0  0  0
   -6.3344   -1.3109    0.5106 Cl  0  0  0  0  0  0  0  0  0  0  0  0
  1  2  1  0
  3  1  2  0
  1  4  1  0
  5  3  1  0
  4  6  2  0
  7  5  2  0
  6  7  1  0
  8  7  1  0
  8  9  1  0
  8 10  2  0
  9 11  1  0
  2 12  2  0
 13  2  1  0
 12 14  1  0
 15 13  2  0
 13 16  1  0
 14 17  2  0
 17 15  1  0
 17 18  1  0
M  END
>  <ID>  (76) 


>  <MolWt>  (76) 
280.005785

>  <LogP>  (76) 
4.447

>  <NumHDonors>  (76) 
0

>  <NumHAcceptors>  (76) 
2

$$$$

     RDKit          3D

 17 18  0  0  0  0  0  0  0  0999 V2000
    0.5969   -0.3732   -0.2025 C   0  0  0  0  0  0  0  0  0  0  0  0
    2.0283   -0.2300    0.0603 C   0  0  0  0  0  0  0  0  0  0  0  0
   -0.2650   -0.4623    0.8368 C   0  0  0  0  0  0  0  0  0  0  0  0
    0.0479   -0.4338   -1.5624 C   0  0  0  0  0  0  0  0  0  0  0  0
   -1.7029   -0.5214    0.6174 C   0  0  0  0  0  0  0  0  0  0  0  0
   -1.2804   -0.4735   -1.7711 C   0  0  0  0  0  0  0  0  0  0  0  0
   -2.1879   -0.4553   -0.6367 C   0  0  0  0  0  0  0  0  0  0  0  0
   -3.6481   -0.3402   -0.8197 C   0  0  0  0  0  0  0  0  0  0  0  0
   -3.9679    0.9423   -1.1211 O   0  0  0  0  0  0  0  0  0  0  0  0
   -4.4347   -1.2681   -0.7258 O   0  0  0  0  0  0  0  0  0  0  0  0
   -4.9796    1.4596   -0.2608 C   0  0  0  0  0  0  0  0  0  0  0  0
    2.5688    1.0068    0.1501 C   0  0  0  0  0  0  0  0  0  0  0  0
    2.9228   -1.3846    0.2009 C   0  0  0  0  0  0  0  0  0  0  0  0
    3.9907    1.1885    0.3993 C   0  0  0  0  0  0  0  0  0  0  0  0
    4.2388   -1.2187    0.4260 C   0  0  0  0  0  0  0  0  0  0  0  0
    4.7918    0.1179    0.5315 C   0  0  0  0  0  0  0  0  0  0  0  0
    6.4777    0.2922    0.8255 Cl  0  0  0  0  0  0  0  0  0  0  0  0
  1  2  1  0
  3  1  2  0
  1  4  1  0
  5  3  1  0
  4  6  2  0
  7  5  2  0
  6  7  1  0
  8  7  1  0
  8  9  1  0
  8 10  2  0
  9 11  1  0
  2 12  2  0
 13  2  1  0
 12 14  1  0
 15 13  2  0
 14 16  2  0
 16 15  1  0
 16 17  1  0
M  END
>  <ID>  (77) 


>  <MolWt>  (77) 
246.044757

>  <LogP>  (77) 
3.7936

>  <NumHDonors>  (77) 
0

>  <NumHAcceptors>  (77) 
2

$$$$

     RDKit          3D

 19 20  0  0  0  0  0  0  0  0999 V2000
   -0.6436   -0.6367    0.0752 C   0  0  0  0  0  0  0  0  0  0  0  0
   -2.0113   -0.1359   -0.0822 C   0  0  0  0  0  0  0  0  0  0  0  0
   -0.0857   -0.6702    1.3071 C   0  0  0  0  0  0  0  0  0  0  0  0
    0.2174   -0.9515   -1.0716 C   0  0  0  0  0  0  0  0  0  0  0  0
    1.3615   -0.6707    1.4659 C   0  0  0  0  0  0  0  0  0  0  0  0
    1.5541   -1.0086   -0.9292 C   0  0  0  0  0  0  0  0  0  0  0  0
    2.1471   -0.7731    0.3770 C   0  0  0  0  0  0  0  0  0  0  0  0
    3.6041   -0.6017    0.5398 C   0  0  0  0  0  0  0  0  0  0  0  0
    3.9216    0.7081    0.3944 O   0  0  0  0  0  0  0  0  0  0  0  0
    4.3850   -1.5082    0.7768 O   0  0  0  0  0  0  0  0  0  0  0  0
    5.0335    0.9030   -0.4766 C   0  0  0  0  0  0  0  0  0  0  0  0
   -3.0172   -1.0410   -0.1066 C   0  0  0  0  0  0  0  0  0  0  0  0
   -2.3704    1.2936   -0.1848 C   0  0  0  0  0  0  0  0  0  0  0  0
   -4.4070   -0.6264   -0.0087 C   0  0  0  0  0  0  0  0  0  0  0  0
   -3.6638    1.6816   -0.1569 C   0  0  0  0  0  0  0  0  0  0  0  0
   -1.3386    2.2053   -0.3116 O   0  0  0  0  0  0  0  0  0  0  0  0
   -5.7085   -1.9537    0.1274 Br  0  0  0  0  0  0  0  0  0  0  0  0
   -4.7149    0.6819   -0.0361 C   0  0  0  0  0  0  0  0  0  0  0  0
   -4.2081    3.4669   -0.2719 Br  0  0  0  0  0  0  0  0  0  0  0  0
  1  2  1  0
  3  1  2  0
  1  4  1  0
  5  3  1  0
  4  6  2  0
  7  5  2  0
  6  7  1  0
  8  7  1  0
  8  9  1  0
  8 10  2  0
  9 11  1  0
  2 12  2  0
 13  2  1  0
 12 14  1  0
 15 13  2  0
 13 16  1  0
 14 17  1  0
 14 18  2  0
 18 15  1  0
 15 19  1  0
M  END
>  <ID>  (78) 


>  <MolWt>  (78) 
383.899668

>  <LogP>  (78) 
4.3708

>  <NumHDonors>  (78) 
1

>  <NumHAcceptors>  (78) 
3

$$$$

     RDKit          3D

 17 18  0  0  0  0  0  0  0  0999 V2000
   -0.6502    0.2850   -0.0475 C   0  0  0  0  0  0  0  0  0  0  0  0
   -2.0686   -0.0706   -0.0350 C   0  0  0  0  0  0  0  0  0  0  0  0
   -0.1606    1.1006    0.9146 C   0  0  0  0  0  0  0  0  0  0  0  0
    0.2884   -0.2557   -1.0381 C   0  0  0  0  0  0  0  0  0  0  0  0
    1.2664    1.3655    1.0207 C   0  0  0  0  0  0  0  0  0  0  0  0
    1.6091   -0.0193   -0.9419 C   0  0  0  0  0  0  0  0  0  0  0  0
    2.1189    0.7826    0.1572 C   0  0  0  0  0  0  0  0  0  0  0  0
    3.5675    0.9954    0.3435 C   0  0  0  0  0  0  0  0  0  0  0  0
    4.0606    0.0464    1.1768 O   0  0  0  0  0  0  0  0  0  0  0  0
    4.2085    1.8959   -0.1727 O   0  0  0  0  0  0  0  0  0  0  0  0
    5.2126   -0.5975    0.6384 C   0  0  0  0  0  0  0  0  0  0  0  0
   -2.9449    0.6603   -0.7604 C   0  0  0  0  0  0  0  0  0  0  0  0
   -2.5852   -1.2262    0.7046 C   0  0  0  0  0  0  0  0  0  0  0  0
   -4.3517    0.2965   -0.8270 C   0  0  0  0  0  0  0  0  0  0  0  0
   -3.8874   -1.5599    0.6498 C   0  0  0  0  0  0  0  0  0  0  0  0
   -4.8111   -0.7715   -0.1497 C   0  0  0  0  0  0  0  0  0  0  0  0
   -6.6002   -1.2888   -0.1920 Br  0  0  0  0  0  0  0  0  0  0  0  0
  1  2  1  0
  3  1  2  0
  1  4  1  0
  5  3  1  0
  4  6  2  0
  7  5  2  0
  6  7  1  0
  8  7  1  0
  8  9  1  0
  8 10  2  0
  9 11  1  0
  2 12  2  0
 13  2  1  0
 12 14  1  0
 15 13  2  0
 14 16  2  0
 16 15  1  0
 16 17  1  0
M  END
>  <ID>  (79) 


>  <MolWt>  (79) 
289.994242

>  <LogP>  (79) 
3.9027

>  <NumHDonors>  (79) 
0

>  <NumHAcceptors>  (79) 
2

$$$$

     RDKit          3D

 17 18  0  0  0  0  0  0  0  0999 V2000
   -0.6362   -0.0245    0.0629 C   0  0  0  0  0  0  0  0  0  0  0  0
   -2.0752    0.1873   -0.1111 C   0  0  0  0  0  0  0  0  0  0  0  0
    0.2375    0.7914   -0.5705 C   0  0  0  0  0  0  0  0  0  0  0  0
   -0.0944   -1.1666    0.8095 C   0  0  0  0  0  0  0  0  0  0  0  0
    1.6420    0.4317   -0.6919 C   0  0  0  0  0  0  0  0  0  0  0  0
    1.2182   -1.4582    0.7700 C   0  0  0  0  0  0  0  0  0  0  0  0
    2.1203   -0.6229   -0.0052 C   0  0  0  0  0  0  0  0  0  0  0  0
    3.5593   -0.9367   -0.1076 C   0  0  0  0  0  0  0  0  0  0  0  0
    4.1949   -0.5034    1.0085 O   0  0  0  0  0  0  0  0  0  0  0  0
    4.0788   -1.5129   -1.0490 O   0  0  0  0  0  0  0  0  0  0  0  0
    5.3525    0.2706    0.7034 C   0  0  0  0  0  0  0  0  0  0  0  0
   -2.7277    0.9379    0.8080 C   0  0  0  0  0  0  0  0  0  0  0  0
   -2.8650   -0.3385   -1.2411 C   0  0  0  0  0  0  0  0  0  0  0  0
   -4.1006    1.3652    0.5956 C   0  0  0  0  0  0  0  0  0  0  0  0
   -4.1494    0.0176   -1.4091 C   0  0  0  0  0  0  0  0  0  0  0  0
   -2.2625   -1.2095   -2.1239 O   0  0  0  0  0  0  0  0  0  0  0  0
   -4.7857    0.9209   -0.4708 C   0  0  0  0  0  0  0  0  0  0  0  0
  1  2  1  0
  3  1  2  0
  1  4  1  0
  5  3  1  0
  4  6  2  0
  7  5  2  0
  6  7  1  0
  8  7  1  0
  8  9  1  0
  8 10  2  0
  9 11  1  0
  2 12  2  0
 13  2  1  0
 12 14  1  0
 15 13  2  0
 13 16  1  0
 14 17  2  0
 17 15  1  0
M  END
>  <ID>  (80) 


>  <MolWt>  (80) 
228.078644

>  <LogP>  (80) 
2.8458

>  <NumHDonors>  (80) 
1

>  <NumHAcceptors>  (80) 
3

$$$$

     RDKit          3D

 18 19  0  0  0  0  0  0  0  0999 V2000
    0.0132   -0.0961    0.1032 C   0  0  0  0  0  0  0  0  0  0  0  0
   -1.4443    0.0020   -0.0033 C   0  0  0  0  0  0  0  0  0  0  0  0
    0.7862    0.3591   -0.9095 C   0  0  0  0  0  0  0  0  0  0  0  0
    0.6757   -0.7750    1.2238 C   0  0  0  0  0  0  0  0  0  0  0  0
    2.1952    0.0062   -0.9906 C   0  0  0  0  0  0  0  0  0  0  0  0
    1.9964   -1.0291    1.1949 C   0  0  0  0  0  0  0  0  0  0  0  0
    2.7870   -0.6110    0.0492 C   0  0  0  0  0  0  0  0  0  0  0  0
    4.2358   -0.8847   -0.0253 C   0  0  0  0  0  0  0  0  0  0  0  0
    4.9062    0.0307    0.7164 O   0  0  0  0  0  0  0  0  0  0  0  0
    4.7370   -1.8061   -0.6481 O   0  0  0  0  0  0  0  0  0  0  0  0
    5.9703    0.6383   -0.0117 C   0  0  0  0  0  0  0  0  0  0  0  0
   -2.0571    1.0751    0.5484 C   0  0  0  0  0  0  0  0  0  0  0  0
   -2.2952   -0.9621   -0.7224 C   0  0  0  0  0  0  0  0  0  0  0  0
   -3.4354    1.4033    0.2240 C   0  0  0  0  0  0  0  0  0  0  0  0
   -3.5892   -0.6938   -0.9640 C   0  0  0  0  0  0  0  0  0  0  0  0
   -1.7400   -2.1530   -1.1404 O   0  0  0  0  0  0  0  0  0  0  0  0
   -4.1854    0.5542   -0.5046 C   0  0  0  0  0  0  0  0  0  0  0  0
   -5.6133    0.8147   -0.8699 C   0  0  0  0  0  0  0  0  0  0  0  0
  1  2  1  0
  3  1  2  0
  1  4  1  0
  5  3  1  0
  4  6  2  0
  7  5  2  0
  6  7  1  0
  8  7  1  0
  8  9  1  0
  8 10  2  0
  9 11  1  0
  2 12  2  0
 13  2  1  0
 12 14  1  0
 15 13  2  0
 13 16  1  0
 14 17  2  0
 17 15  1  0
 17 18  1  0
M  END
>  <ID>  (81) 


>  <MolWt>  (81) 
242.094294

>  <LogP>  (81) 
3.15422

>  <NumHDonors>  (81) 
1

>  <NumHAcceptors>  (81) 
3

$$$$

     RDKit          3D

 17 18  0  0  0  0  0  0  0  0999 V2000
   -0.5593    0.0199   -0.6591 C   0  0  0  0  0  0  0  0  0  0  0  0
   -1.9747   -0.2706   -0.4361 C   0  0  0  0  0  0  0  0  0  0  0  0
    0.3288   -0.9993   -0.7192 C   0  0  0  0  0  0  0  0  0  0  0  0
   -0.0377    1.3881   -0.7626 C   0  0  0  0  0  0  0  0  0  0  0  0
    1.7588   -0.7500   -0.5959 C   0  0  0  0  0  0  0  0  0  0  0  0
    1.2835    1.6277   -0.6784 C   0  0  0  0  0  0  0  0  0  0  0  0
    2.2027    0.5173   -0.4937 C   0  0  0  0  0  0  0  0  0  0  0  0
    3.6143    0.7377   -0.1239 C   0  0  0  0  0  0  0  0  0  0  0  0
    3.6962    1.0555    1.1916 O   0  0  0  0  0  0  0  0  0  0  0  0
    4.5546    0.6575   -0.8974 O   0  0  0  0  0  0  0  0  0  0  0  0
    4.6140    0.2176    1.8892 C   0  0  0  0  0  0  0  0  0  0  0  0
   -2.4583   -0.2922    0.8281 C   0  0  0  0  0  0  0  0  0  0  0  0
   -2.9245   -0.4955   -1.5282 C   0  0  0  0  0  0  0  0  0  0  0  0
   -3.8764   -0.4894    1.0873 C   0  0  0  0  0  0  0  0  0  0  0  0
   -4.2324   -0.6897   -1.2950 C   0  0  0  0  0  0  0  0  0  0  0  0
   -2.4595   -0.5074   -2.7950 F   0  0  0  0  0  0  0  0  0  0  0  0
   -4.7304   -0.6809    0.0672 C   0  0  0  0  0  0  0  0  0  0  0  0
  1  2  1  0
  3  1  2  0
  1  4  1  0
  5  3  1  0
  4  6  2  0
  7  5  2  0
  6  7  1  0
  8  7  1  0
  8  9  1  0
  8 10  2  0
  9 11  1  0
  2 12  2  0
 13  2  1  0
 12 14  1  0
 15 13  2  0
 13 16  1  0
 14 17  2  0
 17 15  1  0
M  END
>  <ID>  (82) 


>  <MolWt>  (82) 
230.074308

>  <LogP>  (82) 
3.2793

>  <NumHDonors>  (82) 
0

>  <NumHAcceptors>  (82) 
2

$$$$

     RDKit          3D

 17 18  0  0  0  0  0  0  0  0999 V2000
   -0.6034   -0.3423    0.3515 C   0  0  0  0  0  0  0  0  0  0  0  0
   -2.0624   -0.2415    0.3668 C   0  0  0  0  0  0  0  0  0  0  0  0
   -0.0079   -1.2453   -0.4612 C   0  0  0  0  0  0  0  0  0  0  0  0
    0.2556    0.5434    1.1464 C   0  0  0  0  0  0  0  0  0  0  0  0
    1.4385   -1.2768   -0.6174 C   0  0  0  0  0  0  0  0  0  0  0  0
    1.5932    0.5206    1.0051 C   0  0  0  0  0  0  0  0  0  0  0  0
    2.2012   -0.3932    0.0531 C   0  0  0  0  0  0  0  0  0  0  0  0
    3.6578   -0.3956   -0.1846 C   0  0  0  0  0  0  0  0  0  0  0  0
    3.9492    0.4368   -1.2144 O   0  0  0  0  0  0  0  0  0  0  0  0
    4.4633   -1.0568    0.4499 O   0  0  0  0  0  0  0  0  0  0  0  0
    4.9980    1.3466   -0.8919 C   0  0  0  0  0  0  0  0  0  0  0  0
   -2.7689   -0.9482    1.2800 C   0  0  0  0  0  0  0  0  0  0  0  0
   -2.8017    0.6290   -0.5578 C   0  0  0  0  0  0  0  0  0  0  0  0
   -4.2193   -0.8578    1.3379 C   0  0  0  0  0  0  0  0  0  0  0  0
   -4.1430    0.7145   -0.5023 C   0  0  0  0  0  0  0  0  0  0  0  0
   -4.8687   -0.0585    0.4791 C   0  0  0  0  0  0  0  0  0  0  0  0
   -6.2115    0.0434    0.5110 F   0  0  0  0  0  0  0  0  0  0  0  0
  1  2  1  0
  3  1  2  0
  1  4  1  0
  5  3  1  0
  4  6  2  0
  7  5  2  0
  6  7  1  0
  8  7  1  0
  8  9  1  0
  8 10  2  0
  9 11  1  0
  2 12  2  0
 13  2  1  0
 12 14  1  0
 15 13  2  0
 14 16  2  0
 16 15  1  0
 16 17  1  0
M  END
>  <ID>  (83) 


>  <MolWt>  (83) 
230.074308

>  <LogP>  (83) 
3.2793

>  <NumHDonors>  (83) 
0

>  <NumHAcceptors>  (83) 
2

$$$$

     RDKit          3D

 16 17  0  0  0  0  0  0  0  0999 V2000
   -0.6714   -0.0907    0.3733 C   0  0  0  0  0  0  0  0  0  0  0  0
   -2.0594   -0.0755   -0.0874 C   0  0  0  0  0  0  0  0  0  0  0  0
    0.1382   -1.1125    0.0108 C   0  0  0  0  0  0  0  0  0  0  0  0
   -0.0953    0.9972    1.1727 C   0  0  0  0  0  0  0  0  0  0  0  0
    1.5564   -1.1003    0.3385 C   0  0  0  0  0  0  0  0  0  0  0  0
    1.2186    1.0243    1.4600 C   0  0  0  0  0  0  0  0  0  0  0  0
    2.0838   -0.0357    0.9715 C   0  0  0  0  0  0  0  0  0  0  0  0
    3.5505    0.0356    1.1217 C   0  0  0  0  0  0  0  0  0  0  0  0
    4.0584    0.9070    0.2157 O   0  0  0  0  0  0  0  0  0  0  0  0
    4.1950   -0.5885    1.9487 O   0  0  0  0  0  0  0  0  0  0  0  0
    5.0928    0.3210   -0.5702 C   0  0  0  0  0  0  0  0  0  0  0  0
   -3.0266   -0.6088    0.6934 C   0  0  0  0  0  0  0  0  0  0  0  0
   -2.4606    0.5283   -1.3628 C   0  0  0  0  0  0  0  0  0  0  0  0
   -4.4178   -0.6058    0.2722 C   0  0  0  0  0  0  0  0  0  0  0  0
   -3.7482    0.5374   -1.7503 C   0  0  0  0  0  0  0  0  0  0  0  0
   -4.7648   -0.0545   -0.9028 C   0  0  0  0  0  0  0  0  0  0  0  0
  1  2  1  0
  3  1  2  0
  1  4  1  0
  5  3  1  0
  4  6  2  0
  7  5  2  0
  6  7  1  0
  8  7  1  0
  8  9  1  0
  8 10  2  0
  9 11  1  0
  2 12  2  0
 13  2  1  0
 12 14  1  0
 15 13  2  0
 14 16  2  0
 16 15  1  0
M  END
>  <ID>  (84) 


>  <MolWt>  (84) 
212.08373

>  <LogP>  (84) 
3.1402

>  <NumHDonors>  (84) 
0

>  <NumHAcceptors>  (84) 
2

$$$$

     RDKit          3D

 18 19  0  0  0  0  0  0  0  0999 V2000
   -0.6567   -0.1909   -0.0029 C   0  0  0  0  0  0  0  0  0  0  0  0
   -2.0675   -0.2611   -0.3814 C   0  0  0  0  0  0  0  0  0  0  0  0
    0.2634   -0.8637   -0.7317 C   0  0  0  0  0  0  0  0  0  0  0  0
   -0.1899    0.5577    1.1707 C   0  0  0  0  0  0  0  0  0  0  0  0
    1.6241   -1.0322   -0.2447 C   0  0  0  0  0  0  0  0  0  0  0  0
    1.0897    0.4775    1.5780 C   0  0  0  0  0  0  0  0  0  0  0  0
    2.0327   -0.3444    0.8381 C   0  0  0  0  0  0  0  0  0  0  0  0
    3.4400   -0.4747    1.2649 C   0  0  0  0  0  0  0  0  0  0  0  0
    4.1233    0.6430    0.9160 O   0  0  0  0  0  0  0  0  0  0  0  0
    3.9022   -1.4384    1.8533 O   0  0  0  0  0  0  0  0  0  0  0  0
    5.3006    0.3424    0.1712 C   0  0  0  0  0  0  0  0  0  0  0  0
   -2.8565   -1.2135    0.1715 C   0  0  0  0  0  0  0  0  0  0  0  0
   -2.6931    0.6885   -1.3081 C   0  0  0  0  0  0  0  0  0  0  0  0
   -4.2804   -1.2697   -0.1245 C   0  0  0  0  0  0  0  0  0  0  0  0
   -4.0042    0.6370   -1.5909 C   0  0  0  0  0  0  0  0  0  0  0  0
   -1.9184    1.6308   -1.8849 F   0  0  0  0  0  0  0  0  0  0  0  0
   -4.8200   -0.3789   -0.9700 C   0  0  0  0  0  0  0  0  0  0  0  0
   -6.1347   -0.4125   -1.2606 F   0  0  0  0  0  0  0  0  0  0  0  0
  1  2  1  0
  3  1  2  0
  1  4  1  0
  5  3  1  0
  4  6  2  0
  7  5  2  0
  6  7  1  0
  8  7  1  0
  8  9  1  0
  8 10  2  0
  9 11  1  0
  2 12  2  0
 13  2  1  0
 12 14  1  0
 15 13  2  0
 13 16  1  0
 14 17  2  0
 17 15  1  0
 17 18  1  0
M  END
>  <ID>  (85) 


>  <MolWt>  (85) 
248.064886

>  <LogP>  (85) 
3.4184

>  <NumHDonors>  (85) 
0

>  <NumHAcceptors>  (85) 
2

$$$$

     RDKit          3D

 12 12  0  0  0  0  0  0  0  0999 V2000
   -2.9637    1.2832    0.4689 O   0  0  0  0  0  0  0  0  0  0  0  0
   -1.7901    0.6539    0.1244 C   0  0  0  0  0  0  0  0  0  0  0  0
   -4.0327    0.8085   -0.3479 C   0  0  0  0  0  0  0  0  0  0  0  0
   -0.9023    1.1985   -0.7288 C   0  0  0  0  0  0  0  0  0  0  0  0
   -1.3896   -0.4444    0.9906 C   0  0  0  0  0  0  0  0  0  0  0  0
    0.4186    0.6071   -0.8789 C   0  0  0  0  0  0  0  0  0  0  0  0
   -0.1487   -0.9571    0.8966 C   0  0  0  0  0  0  0  0  0  0  0  0
    0.7937   -0.3980   -0.0629 C   0  0  0  0  0  0  0  0  0  0  0  0
    2.1694   -0.9211   -0.1817 C   0  0  0  0  0  0  0  0  0  0  0  0
    2.9167   -0.4695    0.8554 O   0  0  0  0  0  0  0  0  0  0  0  0
    2.5589   -1.6575   -1.0731 O   0  0  0  0  0  0  0  0  0  0  0  0
    4.1126    0.1698    0.4172 C   0  0  0  0  0  0  0  0  0  0  0  0
  1  2  1  0
  1  3  1  0
  4  2  2  0
  2  5  1  0
  6  4  1  0
  5  7  2  0
  8  6  2  0
  7  8  1  0
  9  8  1  0
  9 10  1  0
  9 11  2  0
 10 12  1  0
M  END
>  <ID>  (86) 


>  <MolWt>  (86) 
166.062994

>  <LogP>  (86) 
1.4818

>  <NumHDonors>  (86) 
0

>  <NumHAcceptors>  (86) 
3

$$$$

     RDKit          3D

 18 19  0  0  0  0  0  0  0  0999 V2000
    5.3170    0.2251    0.2771 O   0  0  0  0  0  0  0  0  0  0  0  0
    3.9485    0.1256    0.1824 C   0  0  0  0  0  0  0  0  0  0  0  0
    5.6912    0.5722    1.6090 C   0  0  0  0  0  0  0  0  0  0  0  0
    3.1747    1.1424   -0.2361 C   0  0  0  0  0  0  0  0  0  0  0  0
    3.4101   -1.2214    0.2219 C   0  0  0  0  0  0  0  0  0  0  0  0
    1.7647    0.9161   -0.5120 C   0  0  0  0  0  0  0  0  0  0  0  0
    2.1073   -1.4302   -0.0396 C   0  0  0  0  0  0  0  0  0  0  0  0
    1.2155   -0.3119   -0.3679 C   0  0  0  0  0  0  0  0  0  0  0  0
   -0.2250   -0.4834   -0.5523 C   0  0  0  0  0  0  0  0  0  0  0  0
   -1.0515   -0.3641    0.5124 C   0  0  0  0  0  0  0  0  0  0  0  0
   -0.8203   -0.7935   -1.8576 C   0  0  0  0  0  0  0  0  0  0  0  0
   -2.4963   -0.4483    0.3551 C   0  0  0  0  0  0  0  0  0  0  0  0
   -2.1551   -0.8559   -2.0120 C   0  0  0  0  0  0  0  0  0  0  0  0
   -3.0232   -0.6116   -0.8729 C   0  0  0  0  0  0  0  0  0  0  0  0
   -4.4871   -0.5021   -1.0283 C   0  0  0  0  0  0  0  0  0  0  0  0
   -4.7983    0.7033   -1.5651 O   0  0  0  0  0  0  0  0  0  0  0  0
   -5.2844   -1.3758   -0.7288 O   0  0  0  0  0  0  0  0  0  0  0  0
   -5.7551    1.4091   -0.7795 C   0  0  0  0  0  0  0  0  0  0  0  0
  1  2  1  0
  1  3  1  0
  4  2  2  0
  2  5  1  0
  6  4  1  0
  5  7  2  0
  8  6  2  0
  7  8  1  0
  9  8  1  0
 10  9  2  0
  9 11  1  0
 12 10  1  0
 11 13  2  0
 14 12  2  0
 13 14  1  0
 15 14  1  0
 15 16  1  0
 15 17  2  0
 16 18  1  0
M  END
>  <ID>  (87) 


>  <MolWt>  (87) 
242.094294

>  <LogP>  (87) 
3.1488

>  <NumHDonors>  (87) 
0

>  <NumHAcceptors>  (87) 
3

$$$$

     RDKit          3D

 19 20  0  0  0  0  0  0  0  0999 V2000
    4.6674   -0.3097    0.3631 C   0  0  0  0  0  0  0  0  0  0  0  0
    3.1538   -0.4088    0.3495 C   0  0  0  0  0  0  0  0  0  0  0  0
    5.2141   -0.0717    1.7735 C   0  0  0  0  0  0  0  0  0  0  0  0
    5.1866    0.7528   -0.6099 C   0  0  0  0  0  0  0  0  0  0  0  0
    2.5106   -1.5329   -0.0289 C   0  0  0  0  0  0  0  0  0  0  0  0
    2.3513    0.7563    0.7147 C   0  0  0  0  0  0  0  0  0  0  0  0
    1.0723   -1.5335   -0.2362 C   0  0  0  0  0  0  0  0  0  0  0  0
    1.0139    0.7357    0.5769 C   0  0  0  0  0  0  0  0  0  0  0  0
    0.3231   -0.4508    0.0678 C   0  0  0  0  0  0  0  0  0  0  0  0
   -1.1218   -0.4876   -0.1533 C   0  0  0  0  0  0  0  0  0  0  0  0
   -1.9402   -0.8547    0.8599 C   0  0  0  0  0  0  0  0  0  0  0  0
   -1.7344   -0.0832   -1.4243 C   0  0  0  0  0  0  0  0  0  0  0  0
   -3.3873   -0.7751    0.7236 C   0  0  0  0  0  0  0  0  0  0  0  0
   -3.0705    0.0086   -1.5506 C   0  0  0  0  0  0  0  0  0  0  0  0
   -3.9231   -0.2942   -0.4138 C   0  0  0  0  0  0  0  0  0  0  0  0
   -5.3801   -0.0621   -0.4601 C   0  0  0  0  0  0  0  0  0  0  0  0
   -5.6336    1.2624   -0.3197 O   0  0  0  0  0  0  0  0  0  0  0  0
   -6.2178   -0.9353   -0.6163 O   0  0  0  0  0  0  0  0  0  0  0  0
   -6.5704    1.5219    0.7225 C   0  0  0  0  0  0  0  0  0  0  0  0
  1  2  1  0
  1  3  1  0
  1  4  1  0
  5  2  2  0
  2  6  1  0
  7  5  1  0
  6  8  2  0
  9  7  2  0
  8  9  1  0
 10  9  1  0
 11 10  2  0
 10 12  1  0
 13 11  1  0
 12 14  2  0
 15 13  2  0
 14 15  1  0
 16 15  1  0
 16 17  1  0
 16 18  2  0
 17 19  1  0
M  END
>  <ID>  (88) 


>  <MolWt>  (88) 
254.13068

>  <LogP>  (88) 
4.2636

>  <NumHDonors>  (88) 
0

>  <NumHAcceptors>  (88) 
2

$$$$

     RDKit          3D

 23 25  0  0  0  0  0  0  0  0999 V2000
   -2.5756    0.0338   -0.8757 C   0  0  0  0  0  0  0  0  0  0  0  0
   -4.0093    0.2876   -0.7198 C   0  0  0  0  0  0  0  0  0  0  0  0
   -2.0888   -1.2036   -0.6372 C   0  0  0  0  0  0  0  0  0  0  0  0
   -1.6046    1.1054   -1.1039 C   0  0  0  0  0  0  0  0  0  0  0  0
   -0.6935   -1.3946   -0.2746 C   0  0  0  0  0  0  0  0  0  0  0  0
   -0.3000    0.9162   -0.8391 C   0  0  0  0  0  0  0  0  0  0  0  0
    0.1857   -0.3697   -0.3328 C   0  0  0  0  0  0  0  0  0  0  0  0
    1.5485   -0.5587    0.1615 C   0  0  0  0  0  0  0  0  0  0  0  0
    2.5275   -0.9054   -0.7060 C   0  0  0  0  0  0  0  0  0  0  0  0
    1.9193   -0.3208    1.5616 C   0  0  0  0  0  0  0  0  0  0  0  0
    3.9227   -0.9356   -0.2915 C   0  0  0  0  0  0  0  0  0  0  0  0
    3.2074   -0.3388    1.9487 C   0  0  0  0  0  0  0  0  0  0  0  0
    4.2495   -0.5972    0.9699 C   0  0  0  0  0  0  0  0  0  0  0  0
    5.6792   -0.4762    1.3166 C   0  0  0  0  0  0  0  0  0  0  0  0
    6.0249    0.8339    1.3645 O   0  0  0  0  0  0  0  0  0  0  0  0
    6.4217   -1.4186    1.5383 O   0  0  0  0  0  0  0  0  0  0  0  0
    7.1730    1.1162    0.5685 C   0  0  0  0  0  0  0  0  0  0  0  0
   -4.7945    0.2253   -1.8214 C   0  0  0  0  0  0  0  0  0  0  0  0
   -4.6644    0.6026    0.5644 C   0  0  0  0  0  0  0  0  0  0  0  0
   -6.2414    0.3223   -1.7239 C   0  0  0  0  0  0  0  0  0  0  0  0
   -5.9992    0.7305    0.6451 C   0  0  0  0  0  0  0  0  0  0  0  0
   -3.8792    0.7671    1.6862 O   0  0  0  0  0  0  0  0  0  0  0  0
   -6.8213    0.5669   -0.5373 C   0  0  0  0  0  0  0  0  0  0  0  0
  1  2  1  0
  3  1  2  0
  1  4  1  0
  5  3  1  0
  4  6  2  0
  7  5  2  0
  6  7  1  0
  8  7  1  0
  9  8  2  0
  8 10  1  0
 11  9  1  0
 10 12  2  0
 13 11  2  0
 12 13  1  0
 14 13  1  0
 14 15  1  0
 14 16  2  0
 15 17  1  0
  2 18  2  0
 19  2  1  0
 18 20  1  0
 21 19  2  0
 19 22  1  0
 20 23  2  0
 23 21  1  0
M  END
>  <ID>  (89) 


>  <MolWt>  (89) 
304.109944

>  <LogP>  (89) 
4.5128

>  <NumHDonors>  (89) 
1

>  <NumHAcceptors>  (89) 
3

$$$$

     RDKit          3D

 24 26  0  0  0  0  0  0  0  0999 V2000
    2.0399    0.4312   -0.6305 C   0  0  0  0  0  0  0  0  0  0  0  0
    3.4678    0.1595   -0.4530 C   0  0  0  0  0  0  0  0  0  0  0  0
    1.2507   -0.5018   -1.2061 C   0  0  0  0  0  0  0  0  0  0  0  0
    1.3841    1.6093   -0.0606 C   0  0  0  0  0  0  0  0  0  0  0  0
   -0.1853   -0.5038   -0.9776 C   0  0  0  0  0  0  0  0  0  0  0  0
    0.0476    1.6513    0.0794 C   0  0  0  0  0  0  0  0  0  0  0  0
   -0.7903    0.5294   -0.3503 C   0  0  0  0  0  0  0  0  0  0  0  0
   -2.2275    0.4736   -0.0873 C   0  0  0  0  0  0  0  0  0  0  0  0
   -3.0877    1.0147   -0.9807 C   0  0  0  0  0  0  0  0  0  0  0  0
   -2.7821   -0.1112    1.1394 C   0  0  0  0  0  0  0  0  0  0  0  0
   -4.5212    1.0271   -0.7321 C   0  0  0  0  0  0  0  0  0  0  0  0
   -4.1088   -0.1276    1.3617 C   0  0  0  0  0  0  0  0  0  0  0  0
   -5.0121    0.4357    0.3730 C   0  0  0  0  0  0  0  0  0  0  0  0
   -6.4750    0.4123    0.5673 C   0  0  0  0  0  0  0  0  0  0  0  0
   -6.9802   -0.7326    0.0460 O   0  0  0  0  0  0  0  0  0  0  0  0
   -7.1184    1.2983    1.1050 O   0  0  0  0  0  0  0  0  0  0  0  0
   -7.8643   -1.3935    0.9477 C   0  0  0  0  0  0  0  0  0  0  0  0
    4.3284    0.6186   -1.3915 C   0  0  0  0  0  0  0  0  0  0  0  0
    4.0399   -0.5761    0.6890 C   0  0  0  0  0  0  0  0  0  0  0  0
    5.7473    0.3084   -1.3348 C   0  0  0  0  0  0  0  0  0  0  0  0
    5.3559   -0.8380    0.7541 C   0  0  0  0  0  0  0  0  0  0  0  0
    3.1967   -0.9916    1.6988 O   0  0  0  0  0  0  0  0  0  0  0  0
    6.2541   -0.3939   -0.3034 C   0  0  0  0  0  0  0  0  0  0  0  0
    7.7031   -0.7453   -0.1737 C   0  0  0  0  0  0  0  0  0  0  0  0
  1  2  1  0
  3  1  2  0
  1  4  1  0
  5  3  1  0
  4  6  2  0
  7  5  2  0
  6  7  1  0
  8  7  1  0
  9  8  2  0
  8 10  1  0
 11  9  1  0
 10 12  2  0
 13 11  2  0
 12 13  1  0
 14 13  1  0
 14 15  1  0
 14 16  2  0
 15 17  1  0
  2 18  2  0
 19  2  1  0
 18 20  1  0
 21 19  2  0
 19 22  1  0
 20 23  2  0
 23 21  1  0
 23 24  1  0
M  END
>  <ID>  (90) 


>  <MolWt>  (90) 
318.125594

>  <LogP>  (90) 
4.82122

>  <NumHDonors>  (90) 
1

>  <NumHAcceptors>  (90) 
3

$$$$

     RDKit          3D

 23 25  0  0  0  0  0  0  0  0999 V2000
   -2.7757   -0.0669   -0.1039 C   0  0  0  0  0  0  0  0  0  0  0  0
   -4.1791    0.3232    0.0195 C   0  0  0  0  0  0  0  0  0  0  0  0
   -2.2548   -0.9707    0.7548 C   0  0  0  0  0  0  0  0  0  0  0  0
   -1.8751    0.5145   -1.1008 C   0  0  0  0  0  0  0  0  0  0  0  0
   -0.8161   -1.1541    0.8644 C   0  0  0  0  0  0  0  0  0  0  0  0
   -0.5486    0.3040   -1.0368 C   0  0  0  0  0  0  0  0  0  0  0  0
    0.0323   -0.5203    0.0249 C   0  0  0  0  0  0  0  0  0  0  0  0
    1.4747   -0.6327    0.2365 C   0  0  0  0  0  0  0  0  0  0  0  0
    2.1725   -1.5799   -0.4316 C   0  0  0  0  0  0  0  0  0  0  0  0
    2.2154    0.2789    1.1167 C   0  0  0  0  0  0  0  0  0  0  0  0
    3.6226   -1.6528   -0.3366 C   0  0  0  0  0  0  0  0  0  0  0  0
    3.5565    0.2205    1.2043 C   0  0  0  0  0  0  0  0  0  0  0  0
    4.2879   -0.7566    0.4159 C   0  0  0  0  0  0  0  0  0  0  0  0
    5.7629   -0.8077    0.4355 C   0  0  0  0  0  0  0  0  0  0  0  0
    6.2554   -0.0527   -0.5774 O   0  0  0  0  0  0  0  0  0  0  0  0
    6.4253   -1.4429    1.2393 O   0  0  0  0  0  0  0  0  0  0  0  0
    7.2397    0.8749   -0.1280 C   0  0  0  0  0  0  0  0  0  0  0  0
   -4.5079    1.3901    0.7852 C   0  0  0  0  0  0  0  0  0  0  0  0
   -5.2642   -0.3674   -0.6817 C   0  0  0  0  0  0  0  0  0  0  0  0
   -5.8857    1.8463    0.8874 C   0  0  0  0  0  0  0  0  0  0  0  0
   -6.5386    0.0442   -0.5854 C   0  0  0  0  0  0  0  0  0  0  0  0
   -4.9619   -1.4429   -1.4389 F   0  0  0  0  0  0  0  0  0  0  0  0
   -6.8633    1.1987    0.2300 C   0  0  0  0  0  0  0  0  0  0  0  0
  1  2  1  0
  3  1  2  0
  1  4  1  0
  5  3  1  0
  4  6  2  0
  7  5  2  0
  6  7  1  0
  8  7  1  0
  9  8  2  0
  8 10  1  0
 11  9  1  0
 10 12  2  0
 13 11  2  0
 12 13  1  0
 14 13  1  0
 14 15  1  0
 14 16  2  0
 15 17  1  0
  2 18  2  0
 19  2  1  0
 18 20  1  0
 21 19  2  0
 19 22  1  0
 20 23  2  0
 23 21  1  0
M  END
>  <ID>  (91) 


>  <MolWt>  (91) 
306.105608

>  <LogP>  (91) 
4.9463

>  <NumHDonors>  (91) 
0

>  <NumHAcceptors>  (91) 
2

$$$$

     RDKit          3D

 23 25  0  0  0  0  0  0  0  0999 V2000
   -2.7275   -0.0419   -0.3099 C   0  0  0  0  0  0  0  0  0  0  0  0
   -4.1716    0.1196   -0.4742 C   0  0  0  0  0  0  0  0  0  0  0  0
   -1.9086    1.0091   -0.5352 C   0  0  0  0  0  0  0  0  0  0  0  0
   -2.1192   -1.2991    0.1279 C   0  0  0  0  0  0  0  0  0  0  0  0
   -0.4687    0.8900   -0.3707 C   0  0  0  0  0  0  0  0  0  0  0  0
   -0.7907   -1.4005    0.3081 C   0  0  0  0  0  0  0  0  0  0  0  0
    0.0914   -0.2554    0.0767 C   0  0  0  0  0  0  0  0  0  0  0  0
    1.5248   -0.2949    0.3621 C   0  0  0  0  0  0  0  0  0  0  0  0
    2.3846   -0.6950   -0.6028 C   0  0  0  0  0  0  0  0  0  0  0  0
    2.0763    0.0650    1.6741 C   0  0  0  0  0  0  0  0  0  0  0  0
    3.8189   -0.7444   -0.3584 C   0  0  0  0  0  0  0  0  0  0  0  0
    3.4027    0.0497    1.8963 C   0  0  0  0  0  0  0  0  0  0  0  0
    4.3079   -0.3244    0.8233 C   0  0  0  0  0  0  0  0  0  0  0  0
    5.7730   -0.2508    0.9901 C   0  0  0  0  0  0  0  0  0  0  0  0
    6.1780    1.0378    0.8735 O   0  0  0  0  0  0  0  0  0  0  0  0
    6.4964   -1.2082    1.2110 O   0  0  0  0  0  0  0  0  0  0  0  0
    7.2255    1.1862   -0.0815 C   0  0  0  0  0  0  0  0  0  0  0  0
   -4.7428   -0.1721   -1.6662 C   0  0  0  0  0  0  0  0  0  0  0  0
   -5.0458    0.5527    0.6243 C   0  0  0  0  0  0  0  0  0  0  0  0
   -6.1823   -0.0740   -1.8515 C   0  0  0  0  0  0  0  0  0  0  0  0
   -6.3768    0.6467    0.4520 C   0  0  0  0  0  0  0  0  0  0  0  0
   -6.9568    0.3196   -0.8300 C   0  0  0  0  0  0  0  0  0  0  0  0
   -8.2925    0.4194   -0.9750 F   0  0  0  0  0  0  0  0  0  0  0  0
  1  2  1  0
  3  1  2  0
  1  4  1  0
  5  3  1  0
  4  6  2  0
  7  5  2  0
  6  7  1  0
  8  7  1  0
  9  8  2  0
  8 10  1  0
 11  9  1  0
 10 12  2  0
 13 11  2  0
 12 13  1  0
 14 13  1  0
 14 15  1  0
 14 16  2  0
 15 17  1  0
  2 18  2  0
 19  2  1  0
 18 20  1  0
 21 19  2  0
 20 22  2  0
 22 21  1  0
 22 23  1  0
M  END
>  <ID>  (92) 


>  <MolWt>  (92) 
306.105608

>  <LogP>  (92) 
4.9463

>  <NumHDonors>  (92) 
0

>  <NumHAcceptors>  (92) 
2

$$$$

     RDKit          3D

 22 24  0  0  0  0  0  0  0  0999 V2000
   -2.7504   -0.1722   -0.1212 C   0  0  0  0  0  0  0  0  0  0  0  0
   -4.1990   -0.3619   -0.1828 C   0  0  0  0  0  0  0  0  0  0  0  0
   -2.2165    0.5703    0.8733 C   0  0  0  0  0  0  0  0  0  0  0  0
   -1.8387   -0.7277   -1.1226 C   0  0  0  0  0  0  0  0  0  0  0  0
   -0.7835    0.8042    0.9526 C   0  0  0  0  0  0  0  0  0  0  0  0
   -0.5136   -0.5128   -1.0486 C   0  0  0  0  0  0  0  0  0  0  0  0
    0.0620    0.2836    0.0363 C   0  0  0  0  0  0  0  0  0  0  0  0
    1.5016    0.4960    0.1799 C   0  0  0  0  0  0  0  0  0  0  0  0
    2.0855    1.5421   -0.4489 C   0  0  0  0  0  0  0  0  0  0  0  0
    2.3609   -0.4202    0.9393 C   0  0  0  0  0  0  0  0  0  0  0  0
    3.5315    1.7053   -0.4518 C   0  0  0  0  0  0  0  0  0  0  0  0
    3.6986   -0.2788    0.9348 C   0  0  0  0  0  0  0  0  0  0  0  0
    4.3062    0.7956    0.1682 C   0  0  0  0  0  0  0  0  0  0  0  0
    5.7724    0.9261    0.0604 C   0  0  0  0  0  0  0  0  0  0  0  0
    6.2054    0.2707   -1.0446 O   0  0  0  0  0  0  0  0  0  0  0  0
    6.4742    1.5389    0.8481 O   0  0  0  0  0  0  0  0  0  0  0  0
    7.2799   -0.6202   -0.7560 C   0  0  0  0  0  0  0  0  0  0  0  0
   -4.7560   -1.4419    0.4113 C   0  0  0  0  0  0  0  0  0  0  0  0
   -5.0858    0.5631   -0.8973 C   0  0  0  0  0  0  0  0  0  0  0  0
   -6.1903   -1.6713    0.3587 C   0  0  0  0  0  0  0  0  0  0  0  0
   -6.4123    0.3494   -0.9504 C   0  0  0  0  0  0  0  0  0  0  0  0
   -6.9868   -0.8101   -0.2963 C   0  0  0  0  0  0  0  0  0  0  0  0
  1  2  1  0
  3  1  2  0
  1  4  1  0
  5  3  1  0
  4  6  2  0
  7  5  2  0
  6  7  1  0
  8  7  1  0
  9  8  2  0
  8 10  1  0
 11  9  1  0
 10 12  2  0
 13 11  2  0
 12 13  1  0
 14 13  1  0
 14 15  1  0
 14 16  2  0
 15 17  1  0
  2 18  2  0
 19  2  1  0
 18 20  1  0
 21 19  2  0
 20 22  2  0
 22 21  1  0
M  END
>  <ID>  (93) 


>  <MolWt>  (93) 
288.11503

>  <LogP>  (93) 
4.8072

>  <NumHDonors>  (93) 
0

>  <NumHAcceptors>  (93) 
2

$$$$

     RDKit          3D

 19 20  0  0  0  0  0  0  0  0999 V2000
    1.0382   -0.8405    0.5775 N   0  0  0  0  0  0  0  0  0  0  0  0
    2.3765   -0.4664    0.6452 C   0  0  0  0  0  0  0  0  0  0  0  0
    0.0329    0.0150    0.1570 C   0  0  0  0  0  0  0  0  0  0  0  0
   -0.8598    0.5946    0.9890 C   0  0  0  0  0  0  0  0  0  0  0  0
   -0.2179    0.1141   -1.2814 C   0  0  0  0  0  0  0  0  0  0  0  0
   -2.1956    0.9366    0.5177 C   0  0  0  0  0  0  0  0  0  0  0  0
   -1.4282    0.4842   -1.7391 C   0  0  0  0  0  0  0  0  0  0  0  0
   -2.4838    0.8044   -0.7918 C   0  0  0  0  0  0  0  0  0  0  0  0
   -3.8880    0.9538   -1.2210 C   0  0  0  0  0  0  0  0  0  0  0  0
   -4.4266   -0.2696   -1.4460 O   0  0  0  0  0  0  0  0  0  0  0  0
   -4.4596    2.0228   -1.3597 O   0  0  0  0  0  0  0  0  0  0  0  0
   -5.6627   -0.4481   -0.7593 C   0  0  0  0  0  0  0  0  0  0  0  0
    2.8826    0.4653    1.4818 C   0  0  0  0  0  0  0  0  0  0  0  0
    3.3190   -1.2329   -0.1769 C   0  0  0  0  0  0  0  0  0  0  0  0
    4.3252    0.6273    1.6544 C   0  0  0  0  0  0  0  0  0  0  0  0
    4.6446   -1.0692   -0.0552 C   0  0  0  0  0  0  0  0  0  0  0  0
    2.7744   -2.1315   -1.0654 O   0  0  0  0  0  0  0  0  0  0  0  0
    5.0528    1.9965    3.0174 I   0  0  0  0  0  0  0  0  0  0  0  0
    5.1666   -0.1135    0.9052 C   0  0  0  0  0  0  0  0  0  0  0  0
  1  2  1  0
  1  3  1  0
  4  3  2  0
  3  5  1  0
  6  4  1  0
  5  7  2  0
  8  6  2  0
  7  8  1  0
  9  8  1  0
  9 10  1  0
  9 11  2  0
 10 12  1  0
  2 13  2  0
 14  2  1  0
 13 15  1  0
 16 14  2  0
 14 17  1  0
 15 18  1  0
 15 19  2  0
 19 16  1  0
M  END
>  <ID>  (94) 


>  <MolWt>  (94) 
368.986191

>  <LogP>  (94) 
3.527

>  <NumHDonors>  (94) 
2

>  <NumHAcceptors>  (94) 
4

$$$$

     RDKit          3D

 18 19  0  0  0  0  0  0  0  0999 V2000
   -1.2727   -1.0144    1.3317 N   0  0  0  0  0  0  0  0  0  0  0  0
   -2.4626   -0.2939    1.2891 C   0  0  0  0  0  0  0  0  0  0  0  0
   -0.1718   -0.7018    0.5522 C   0  0  0  0  0  0  0  0  0  0  0  0
   -0.0839   -0.9225   -0.7772 C   0  0  0  0  0  0  0  0  0  0  0  0
    1.0338   -0.2709    1.2587 C   0  0  0  0  0  0  0  0  0  0  0  0
    1.2107   -0.9903   -1.4376 C   0  0  0  0  0  0  0  0  0  0  0  0
    2.2266   -0.2437    0.6365 C   0  0  0  0  0  0  0  0  0  0  0  0
    2.3182   -0.6279   -0.7628 C   0  0  0  0  0  0  0  0  0  0  0  0
    3.6211   -0.7013   -1.4528 C   0  0  0  0  0  0  0  0  0  0  0  0
    3.8579    0.4701   -2.0935 O   0  0  0  0  0  0  0  0  0  0  0  0
    4.3582   -1.6733   -1.4472 O   0  0  0  0  0  0  0  0  0  0  0  0
    5.1428    1.0030   -1.7829 C   0  0  0  0  0  0  0  0  0  0  0  0
   -2.5914    0.9227    1.8626 C   0  0  0  0  0  0  0  0  0  0  0  0
   -3.6244   -0.8138    0.5376 C   0  0  0  0  0  0  0  0  0  0  0  0
   -3.6072    1.8520    1.4028 C   0  0  0  0  0  0  0  0  0  0  0  0
   -4.6294    0.0202    0.2006 C   0  0  0  0  0  0  0  0  0  0  0  0
   -3.6969   -2.6341    0.1056 Br  0  0  0  0  0  0  0  0  0  0  0  0
   -4.5900    1.4168    0.5971 C   0  0  0  0  0  0  0  0  0  0  0  0
  1  2  1  0
  1  3  1  0
  4  3  2  0
  3  5  1  0
  6  4  1  0
  5  7  2  0
  8  6  2  0
  7  8  1  0
  9  8  1  0
  9 10  1  0
  9 11  2  0
 10 12  1  0
  2 13  2  0
 14  2  1  0
 13 15  1  0
 16 14  2  0
 14 17  1  0
 15 18  2  0
 18 16  1  0
M  END
>  <ID>  (95) 


>  <MolWt>  (95) 
305.005141

>  <LogP>  (95) 
3.9793

>  <NumHDonors>  (95) 
1

>  <NumHAcceptors>  (95) 
3

$$$$

     RDKit          3D

 18 19  0  0  0  0  0  0  0  0999 V2000
   -0.6198    1.4581   -0.2658 N   0  0  0  0  0  0  0  0  0  0  0  0
   -1.7576    1.0631    0.4134 C   0  0  0  0  0  0  0  0  0  0  0  0
    0.4796    0.6484   -0.4766 C   0  0  0  0  0  0  0  0  0  0  0  0
    0.5054   -0.4208   -1.3000 C   0  0  0  0  0  0  0  0  0  0  0  0
    1.7420    1.0896    0.1162 C   0  0  0  0  0  0  0  0  0  0  0  0
    1.7675   -0.9544   -1.7907 C   0  0  0  0  0  0  0  0  0  0  0  0
    2.9126    0.5441   -0.2630 C   0  0  0  0  0  0  0  0  0  0  0  0
    2.9244   -0.5139   -1.2598 C   0  0  0  0  0  0  0  0  0  0  0  0
    4.1906   -1.1067   -1.7337 C   0  0  0  0  0  0  0  0  0  0  0  0
    4.4841   -2.1986   -0.9851 O   0  0  0  0  0  0  0  0  0  0  0  0
    4.8579   -0.6756   -2.6597 O   0  0  0  0  0  0  0  0  0  0  0  0
    5.8260   -2.1766   -0.5043 C   0  0  0  0  0  0  0  0  0  0  0  0
   -1.9086    1.2030    1.7464 C   0  0  0  0  0  0  0  0  0  0  0  0
   -2.9079    0.6030   -0.3634 C   0  0  0  0  0  0  0  0  0  0  0  0
   -3.1913    0.9691    2.3881 C   0  0  0  0  0  0  0  0  0  0  0  0
   -4.0940    0.3711    0.2274 C   0  0  0  0  0  0  0  0  0  0  0  0
   -4.2534    0.5661    1.6636 C   0  0  0  0  0  0  0  0  0  0  0  0
   -5.6039    0.3009    2.2535 C   0  0  0  0  0  0  0  0  0  0  0  0
  1  2  1  0
  1  3  1  0
  4  3  2  0
  3  5  1  0
  6  4  1  0
  5  7  2  0
  8  6  2  0
  7  8  1  0
  9  8  1  0
  9 10  1  0
  9 11  2  0
 10 12  1  0
  2 13  2  0
 14  2  1  0
 13 15  1  0
 16 14  2  0
 15 17  2  0
 17 16  1  0
 17 18  1  0
M  END
>  <ID>  (96) 


>  <MolWt>  (96) 
241.110279

>  <LogP>  (96) 
3.52522

>  <NumHDonors>  (96) 
1

>  <NumHAcceptors>  (96) 
3

$$$$

     RDKit          3D

 18 19  0  0  0  0  0  0  0  0999 V2000
   -1.2284    1.2148   -0.6367 N   0  0  0  0  0  0  0  0  0  0  0  0
   -2.5384    0.8614   -0.3255 C   0  0  0  0  0  0  0  0  0  0  0  0
   -0.1769    0.3146   -0.6002 C   0  0  0  0  0  0  0  0  0  0  0  0
    0.3824   -0.1666    0.5314 C   0  0  0  0  0  0  0  0  0  0  0  0
    0.4804    0.0168   -1.8718 C   0  0  0  0  0  0  0  0  0  0  0  0
    1.7282   -0.7236    0.5195 C   0  0  0  0  0  0  0  0  0  0  0  0
    1.7115   -0.5257   -1.8990 C   0  0  0  0  0  0  0  0  0  0  0  0
    2.3896   -0.8272   -0.6491 C   0  0  0  0  0  0  0  0  0  0  0  0
    3.8161   -1.2046   -0.6167 C   0  0  0  0  0  0  0  0  0  0  0  0
    4.5832   -0.1022   -0.8011 O   0  0  0  0  0  0  0  0  0  0  0  0
    4.2294   -2.3421   -0.4611 O   0  0  0  0  0  0  0  0  0  0  0  0
    5.5484    0.0586    0.2350 C   0  0  0  0  0  0  0  0  0  0  0  0
   -3.3262    0.1696   -1.1783 C   0  0  0  0  0  0  0  0  0  0  0  0
   -3.1143    1.2301    0.9807 C   0  0  0  0  0  0  0  0  0  0  0  0
   -4.5550   -0.4549   -0.7211 C   0  0  0  0  0  0  0  0  0  0  0  0
   -4.2950    0.7183    1.3773 C   0  0  0  0  0  0  0  0  0  0  0  0
   -2.2757    2.3518    1.9958 Cl  0  0  0  0  0  0  0  0  0  0  0  0
   -5.0223   -0.1917    0.5108 C   0  0  0  0  0  0  0  0  0  0  0  0
  1  2  1  0
  1  3  1  0
  4  3  2  0
  3  5  1  0
  6  4  1  0
  5  7  2  0
  8  6  2  0
  7  8  1  0
  9  8  1  0
  9 10  1  0
  9 11  2  0
 10 12  1  0
  2 13  2  0
 14  2  1  0
 13 15  1  0
 16 14  2  0
 14 17  1  0
 15 18  2  0
 18 16  1  0
M  END
>  <ID>  (97) 


>  <MolWt>  (97) 
261.055656

>  <LogP>  (97) 
3.8702

>  <NumHDonors>  (97) 
1

>  <NumHAcceptors>  (97) 
3

$$$$

     RDKit          3D

 19 20  0  0  0  0  0  0  0  0999 V2000
    1.2299    1.5900   -0.7508 N   0  0  0  0  0  0  0  0  0  0  0  0
    2.4037    0.9065   -1.0501 C   0  0  0  0  0  0  0  0  0  0  0  0
    0.1218    0.9765   -0.1908 C   0  0  0  0  0  0  0  0  0  0  0  0
    0.0297    0.5850    1.0987 C   0  0  0  0  0  0  0  0  0  0  0  0
   -1.0762    0.8919   -1.0252 C   0  0  0  0  0  0  0  0  0  0  0  0
   -1.2595    0.2699    1.6946 C   0  0  0  0  0  0  0  0  0  0  0  0
   -2.2610    0.5288   -0.5006 C   0  0  0  0  0  0  0  0  0  0  0  0
   -2.3531    0.1998    0.9123 C   0  0  0  0  0  0  0  0  0  0  0  0
   -3.6439   -0.1579    1.5326 C   0  0  0  0  0  0  0  0  0  0  0  0
   -3.7830   -1.5065    1.5384 O   0  0  0  0  0  0  0  0  0  0  0  0
   -4.4492    0.6447    1.9748 O   0  0  0  0  0  0  0  0  0  0  0  0
   -5.0300   -1.9213    0.9867 C   0  0  0  0  0  0  0  0  0  0  0  0
    2.5173    0.0936   -2.1235 C   0  0  0  0  0  0  0  0  0  0  0  0
    3.5748    1.0213   -0.1622 C   0  0  0  0  0  0  0  0  0  0  0  0
    3.5845   -0.8898   -2.2006 C   0  0  0  0  0  0  0  0  0  0  0  0
    4.6121    0.1711   -0.2821 C   0  0  0  0  0  0  0  0  0  0  0  0
    3.6231    2.2809    1.0218 Cl  0  0  0  0  0  0  0  0  0  0  0  0
    4.5910   -0.8516   -1.3111 C   0  0  0  0  0  0  0  0  0  0  0  0
    5.8829   -1.9852   -1.3731 Cl  0  0  0  0  0  0  0  0  0  0  0  0
  1  2  1  0
  1  3  1  0
  4  3  2  0
  3  5  1  0
  6  4  1  0
  5  7  2  0
  8  6  2  0
  7  8  1  0
  9  8  1  0
  9 10  1  0
  9 11  2  0
 10 12  1  0
  2 13  2  0
 14  2  1  0
 13 15  1  0
 16 14  2  0
 14 17  1  0
 15 18  2  0
 18 16  1  0
 18 19  1  0
M  END
>  <ID>  (98) 


>  <MolWt>  (98) 
295.016684

>  <LogP>  (98) 
4.5236

>  <NumHDonors>  (98) 
1

>  <NumHAcceptors>  (98) 
3

$$$$

     RDKit          3D

 18 19  0  0  0  0  0  0  0  0999 V2000
   -1.3285    1.0229    0.9656 N   0  0  0  0  0  0  0  0  0  0  0  0
   -2.5074    0.3515    0.7020 C   0  0  0  0  0  0  0  0  0  0  0  0
   -0.0975    0.6474    0.4618 C   0  0  0  0  0  0  0  0  0  0  0  0
    0.6356   -0.3913    0.9175 C   0  0  0  0  0  0  0  0  0  0  0  0
    0.5286    1.5600   -0.4946 C   0  0  0  0  0  0  0  0  0  0  0  0
    2.0732   -0.4406    0.6995 C   0  0  0  0  0  0  0  0  0  0  0  0
    1.8400    1.4674   -0.7815 C   0  0  0  0  0  0  0  0  0  0  0  0
    2.6440    0.4316   -0.1530 C   0  0  0  0  0  0  0  0  0  0  0  0
    4.0983    0.3365   -0.3895 C   0  0  0  0  0  0  0  0  0  0  0  0
    4.3214   -0.2119   -1.6093 O   0  0  0  0  0  0  0  0  0  0  0  0
    4.9569    0.7079    0.3935 O   0  0  0  0  0  0  0  0  0  0  0  0
    5.2208   -1.3158   -1.5464 C   0  0  0  0  0  0  0  0  0  0  0  0
   -3.0113   -0.6359    1.4734 C   0  0  0  0  0  0  0  0  0  0  0  0
   -3.3316    0.8549   -0.3961 C   0  0  0  0  0  0  0  0  0  0  0  0
   -4.3891   -1.0765    1.3199 C   0  0  0  0  0  0  0  0  0  0  0  0
   -4.5935    0.4210   -0.5702 C   0  0  0  0  0  0  0  0  0  0  0  0
   -5.1480   -0.5688    0.3337 C   0  0  0  0  0  0  0  0  0  0  0  0
   -6.7772   -1.0721    0.1081 Cl  0  0  0  0  0  0  0  0  0  0  0  0
  1  2  1  0
  1  3  1  0
  4  3  2  0
  3  5  1  0
  6  4  1  0
  5  7  2  0
  8  6  2  0
  7  8  1  0
  9  8  1  0
  9 10  1  0
  9 11  2  0
 10 12  1  0
  2 13  2  0
 14  2  1  0
 13 15  1  0
 16 14  2  0
 15 17  2  0
 17 16  1  0
 17 18  1  0
M  END
>  <ID>  (99) 


>  <MolWt>  (99) 
261.055656

>  <LogP>  (99) 
3.8702

>  <NumHDonors>  (99) 
1

>  <NumHAcceptors>  (99) 
3

$$$$

     RDKit          3D

 20 21  0  0  0  0  0  0  0  0999 V2000
   -1.0922   -0.7925   -0.7937 N   0  0  0  0  0  0  0  0  0  0  0  0
   -2.4025   -0.3286   -0.8693 C   0  0  0  0  0  0  0  0  0  0  0  0
   -0.1005   -0.1440   -0.0748 C   0  0  0  0  0  0  0  0  0  0  0  0
    0.3766   -0.5800    1.1115 C   0  0  0  0  0  0  0  0  0  0  0  0
    0.6287    0.9351   -0.7424 C   0  0  0  0  0  0  0  0  0  0  0  0
    1.7525   -0.3005    1.5018 C   0  0  0  0  0  0  0  0  0  0  0  0
    1.8778    1.2550   -0.3562 C   0  0  0  0  0  0  0  0  0  0  0  0
    2.4933    0.5328    0.7456 C   0  0  0  0  0  0  0  0  0  0  0  0
    3.9305    0.6699    1.0526 C   0  0  0  0  0  0  0  0  0  0  0  0
    4.6569   -0.0245    0.1430 O   0  0  0  0  0  0  0  0  0  0  0  0
    4.3809    1.3217    1.9804 O   0  0  0  0  0  0  0  0  0  0  0  0
    5.6045   -0.8927    0.7595 C   0  0  0  0  0  0  0  0  0  0  0  0
   -3.2640   -0.2771    0.1685 C   0  0  0  0  0  0  0  0  0  0  0  0
   -2.8985    0.0418   -2.2033 C   0  0  0  0  0  0  0  0  0  0  0  0
   -4.6613    0.0753   -0.0327 C   0  0  0  0  0  0  0  0  0  0  0  0
   -4.1869    0.3905   -2.3971 C   0  0  0  0  0  0  0  0  0  0  0  0
   -1.9635   -0.0038   -3.2185 O   0  0  0  0  0  0  0  0  0  0  0  0
   -5.7840    0.0727    1.4559 Br  0  0  0  0  0  0  0  0  0  0  0  0
   -5.1004    0.3992   -1.2625 C   0  0  0  0  0  0  0  0  0  0  0  0
   -4.8896    0.8663   -4.0610 Br  0  0  0  0  0  0  0  0  0  0  0  0
  1  2  1  0
  1  3  1  0
  4  3  2  0
  3  5  1  0
  6  4  1  0
  5  7  2  0
  8  6  2  0
  7  8  1  0
  9  8  1  0
  9 10  1  0
  9 11  2  0
 10 12  1  0
  2 13  2  0
 14  2  1  0
 13 15  1  0
 16 14  2  0
 14 17  1  0
 15 18  1  0
 15 19  2  0
 19 16  1  0
 16 20  1  0
M  END
>  <ID>  (100) 


>  <MolWt>  (100) 
398.910567

>  <LogP>  (100) 
4.4474

>  <NumHDonors>  (100) 
2

>  <NumHAcceptors>  (100) 
4

$$$$

     RDKit          3D

 18 19  0  0  0  0  0  0  0  0999 V2000
   -1.3517   -1.3616   -0.4599 N   0  0  0  0  0  0  0  0  0  0  0  0
   -2.4679   -0.6145   -0.1376 C   0  0  0  0  0  0  0  0  0  0  0  0
   -0.0579   -0.8774   -0.4161 C   0  0  0  0  0  0  0  0  0  0  0  0
    0.7320   -0.9876    0.6735 C   0  0  0  0  0  0  0  0  0  0  0  0
    0.5293   -0.3403   -1.6452 C   0  0  0  0  0  0  0  0  0  0  0  0
    2.1583   -0.7139    0.5987 C   0  0  0  0  0  0  0  0  0  0  0  0
    1.8345   -0.0174   -1.7029 C   0  0  0  0  0  0  0  0  0  0  0  0
    2.6742   -0.1898   -0.5288 C   0  0  0  0  0  0  0  0  0  0  0  0
    4.0998    0.1934   -0.5397 C   0  0  0  0  0  0  0  0  0  0  0  0
    4.2078    1.5392   -0.4165 O   0  0  0  0  0  0  0  0  0  0  0  0
    5.0289   -0.5879   -0.6617 O   0  0  0  0  0  0  0  0  0  0  0  0
    5.0763    1.9123    0.6502 C   0  0  0  0  0  0  0  0  0  0  0  0
   -3.0296    0.3156   -0.9383 C   0  0  0  0  0  0  0  0  0  0  0  0
   -3.1953   -1.0017    1.0687 C   0  0  0  0  0  0  0  0  0  0  0  0
   -4.4247    0.6926   -0.7739 C   0  0  0  0  0  0  0  0  0  0  0  0
   -4.4626   -0.5960    1.2713 C   0  0  0  0  0  0  0  0  0  0  0  0
   -5.1203    0.2571    0.2931 C   0  0  0  0  0  0  0  0  0  0  0  0
   -6.9018    0.7167    0.5824 Br  0  0  0  0  0  0  0  0  0  0  0  0
  1  2  1  0
  1  3  1  0
  4  3  2  0
  3  5  1  0
  6  4  1  0
  5  7  2  0
  8  6  2  0
  7  8  1  0
  9  8  1  0
  9 10  1  0
  9 11  2  0
 10 12  1  0
  2 13  2  0
 14  2  1  0
 13 15  1  0
 16 14  2  0
 15 17  2  0
 17 16  1  0
 17 18  1  0
M  END
>  <ID>  (101) 


>  <MolWt>  (101) 
305.005141

>  <LogP>  (101) 
3.9793

>  <NumHDonors>  (101) 
1

>  <NumHAcceptors>  (101) 
3

$$$$

     RDKit          3D

 18 19  0  0  0  0  0  0  0  0999 V2000
   -1.3700   -0.8068   -0.8228 N   0  0  0  0  0  0  0  0  0  0  0  0
   -2.5270   -0.0875   -0.5425 C   0  0  0  0  0  0  0  0  0  0  0  0
   -0.1340   -0.4974   -0.2792 C   0  0  0  0  0  0  0  0  0  0  0  0
    0.4467   -1.1952    0.7209 C   0  0  0  0  0  0  0  0  0  0  0  0
    0.6798    0.5034   -0.9704 C   0  0  0  0  0  0  0  0  0  0  0  0
    1.8957   -1.2412    0.8454 C   0  0  0  0  0  0  0  0  0  0  0  0
    2.0125    0.5494   -0.7884 C   0  0  0  0  0  0  0  0  0  0  0  0
    2.6478   -0.3852    0.1273 C   0  0  0  0  0  0  0  0  0  0  0  0
    4.1176   -0.4734    0.2389 C   0  0  0  0  0  0  0  0  0  0  0  0
    4.5737    0.5646    0.9824 O   0  0  0  0  0  0  0  0  0  0  0  0
    4.8041   -1.3433   -0.2711 O   0  0  0  0  0  0  0  0  0  0  0  0
    5.4590    0.1404    2.0159 C   0  0  0  0  0  0  0  0  0  0  0  0
   -3.1251   -0.0145    0.6665 C   0  0  0  0  0  0  0  0  0  0  0  0
   -3.2171    0.5274   -1.6843 C   0  0  0  0  0  0  0  0  0  0  0  0
   -4.4537    0.5599    0.8112 C   0  0  0  0  0  0  0  0  0  0  0  0
   -4.4299    1.0866   -1.5503 C   0  0  0  0  0  0  0  0  0  0  0  0
   -2.5624    0.4866   -2.8948 O   0  0  0  0  0  0  0  0  0  0  0  0
   -5.0790    1.0935   -0.2527 C   0  0  0  0  0  0  0  0  0  0  0  0
  1  2  1  0
  1  3  1  0
  4  3  2  0
  3  5  1  0
  6  4  1  0
  5  7  2  0
  8  6  2  0
  7  8  1  0
  9  8  1  0
  9 10  1  0
  9 11  2  0
 10 12  1  0
  2 13  2  0
 14  2  1  0
 13 15  1  0
 16 14  2  0
 14 17  1  0
 15 18  2  0
 18 16  1  0
M  END
>  <ID>  (102) 


>  <MolWt>  (102) 
243.089543

>  <LogP>  (102) 
2.9224

>  <NumHDonors>  (102) 
2

>  <NumHAcceptors>  (102) 
4

$$$$

     RDKit          3D

 19 20  0  0  0  0  0  0  0  0999 V2000
   -0.3367    0.5850    1.5248 N   0  0  0  0  0  0  0  0  0  0  0  0
   -1.4983    0.9887    0.8729 C   0  0  0  0  0  0  0  0  0  0  0  0
    0.6806   -0.1002    0.8799 C   0  0  0  0  0  0  0  0  0  0  0  0
    0.5953   -1.3801    0.4566 C   0  0  0  0  0  0  0  0  0  0  0  0
    1.9677    0.5838    0.7641 C   0  0  0  0  0  0  0  0  0  0  0  0
    1.7719   -2.0961   -0.0106 C   0  0  0  0  0  0  0  0  0  0  0  0
    3.0497   -0.0534    0.2807 C   0  0  0  0  0  0  0  0  0  0  0  0
    2.9393   -1.4390   -0.1449 C   0  0  0  0  0  0  0  0  0  0  0  0
    4.0962   -2.1612   -0.7093 C   0  0  0  0  0  0  0  0  0  0  0  0
    4.0794   -2.0573   -2.0613 O   0  0  0  0  0  0  0  0  0  0  0  0
    4.9295   -2.7621   -0.0513 O   0  0  0  0  0  0  0  0  0  0  0  0
    5.3198   -1.5837   -2.5790 C   0  0  0  0  0  0  0  0  0  0  0  0
   -1.5459    1.9786   -0.0425 C   0  0  0  0  0  0  0  0  0  0  0  0
   -2.7632    0.3429    1.2475 C   0  0  0  0  0  0  0  0  0  0  0  0
   -2.7666    2.2609   -0.7781 C   0  0  0  0  0  0  0  0  0  0  0  0
   -3.9095    0.6369    0.6060 C   0  0  0  0  0  0  0  0  0  0  0  0
   -2.6793   -0.5569    2.2893 O   0  0  0  0  0  0  0  0  0  0  0  0
   -3.9125    1.6199   -0.4741 C   0  0  0  0  0  0  0  0  0  0  0  0
   -5.2063    1.8641   -1.1868 C   0  0  0  0  0  0  0  0  0  0  0  0
  1  2  1  0
  1  3  1  0
  4  3  2  0
  3  5  1  0
  6  4  1  0
  5  7  2  0
  8  6  2  0
  7  8  1  0
  9  8  1  0
  9 10  1  0
  9 11  2  0
 10 12  1  0
  2 13  2  0
 14  2  1  0
 13 15  1  0
 16 14  2  0
 14 17  1  0
 15 18  2  0
 18 16  1  0
 18 19  1  0
M  END
>  <ID>  (103) 


>  <MolWt>  (103) 
257.105193

>  <LogP>  (103) 
3.23082

>  <NumHDonors>  (103) 
2

>  <NumHAcceptors>  (103) 
4

$$$$

     RDKit          3D

 18 19  0  0  0  0  0  0  0  0999 V2000
   -1.5786    0.4455    1.2114 N   0  0  0  0  0  0  0  0  0  0  0  0
   -2.5972    0.1173    0.3247 C   0  0  0  0  0  0  0  0  0  0  0  0
   -0.2444    0.1847    0.9480 C   0  0  0  0  0  0  0  0  0  0  0  0
    0.5156    0.8816    0.0753 C   0  0  0  0  0  0  0  0  0  0  0  0
    0.4070   -0.8285    1.7775 C   0  0  0  0  0  0  0  0  0  0  0  0
    1.9631    0.7388    0.0632 C   0  0  0  0  0  0  0  0  0  0  0  0
    1.7372   -1.0220    1.7171 C   0  0  0  0  0  0  0  0  0  0  0  0
    2.5405   -0.2259    0.8039 C   0  0  0  0  0  0  0  0  0  0  0  0
    3.9916   -0.4533    0.6558 C   0  0  0  0  0  0  0  0  0  0  0  0
    4.2024   -1.5648   -0.0914 O   0  0  0  0  0  0  0  0  0  0  0  0
    4.8595    0.2500    1.1468 O   0  0  0  0  0  0  0  0  0  0  0  0
    5.0696   -1.3133   -1.1940 C   0  0  0  0  0  0  0  0  0  0  0  0
   -3.1484   -1.1135    0.2470 C   0  0  0  0  0  0  0  0  0  0  0  0
   -3.1688    1.1712   -0.5178 C   0  0  0  0  0  0  0  0  0  0  0  0
   -4.2388   -1.3927   -0.6741 C   0  0  0  0  0  0  0  0  0  0  0  0
   -4.1837    0.9250   -1.3616 C   0  0  0  0  0  0  0  0  0  0  0  0
   -2.6558    2.4166   -0.4216 F   0  0  0  0  0  0  0  0  0  0  0  0
   -4.7372   -0.4135   -1.4489 C   0  0  0  0  0  0  0  0  0  0  0  0
  1  2  1  0
  1  3  1  0
  4  3  2  0
  3  5  1  0
  6  4  1  0
  5  7  2  0
  8  6  2  0
  7  8  1  0
  9  8  1  0
  9 10  1  0
  9 11  2  0
 10 12  1  0
  2 13  2  0
 14  2  1  0
 13 15  1  0
 16 14  2  0
 14 17  1  0
 15 18  2  0
 18 16  1  0
M  END
>  <ID>  (104) 


>  <MolWt>  (104) 
245.085207

>  <LogP>  (104) 
3.3559

>  <NumHDonors>  (104) 
1

>  <NumHAcceptors>  (104) 
3

$$$$

     RDKit          3D

 18 19  0  0  0  0  0  0  0  0999 V2000
   -1.2530   -1.0250    0.1715 N   0  0  0  0  0  0  0  0  0  0  0  0
   -2.4535   -0.6000    0.7095 C   0  0  0  0  0  0  0  0  0  0  0  0
   -0.1507   -0.2079    0.0089 C   0  0  0  0  0  0  0  0  0  0  0  0
    0.7018    0.1358    0.9983 C   0  0  0  0  0  0  0  0  0  0  0  0
    0.2302    0.1210   -1.3640 C   0  0  0  0  0  0  0  0  0  0  0  0
    2.0808    0.4960    0.6993 C   0  0  0  0  0  0  0  0  0  0  0  0
    1.4833    0.5178   -1.6530 C   0  0  0  0  0  0  0  0  0  0  0  0
    2.4626    0.6359   -0.5848 C   0  0  0  0  0  0  0  0  0  0  0  0
    3.8906    0.8743   -0.8703 C   0  0  0  0  0  0  0  0  0  0  0  0
    4.5105   -0.3070   -1.1115 O   0  0  0  0  0  0  0  0  0  0  0  0
    4.4232    1.9719   -0.8728 O   0  0  0  0  0  0  0  0  0  0  0  0
    5.2274   -0.2939   -2.3428 C   0  0  0  0  0  0  0  0  0  0  0  0
   -3.4725   -0.1315   -0.0435 C   0  0  0  0  0  0  0  0  0  0  0  0
   -2.6761   -0.7732    2.1479 C   0  0  0  0  0  0  0  0  0  0  0  0
   -4.7694    0.1583    0.5450 C   0  0  0  0  0  0  0  0  0  0  0  0
   -3.8724   -0.4938    2.6978 C   0  0  0  0  0  0  0  0  0  0  0  0
   -4.9514   -0.0193    1.8614 C   0  0  0  0  0  0  0  0  0  0  0  0
   -6.1420    0.2390    2.4352 F   0  0  0  0  0  0  0  0  0  0  0  0
  1  2  1  0
  1  3  1  0
  4  3  2  0
  3  5  1  0
  6  4  1  0
  5  7  2  0
  8  6  2  0
  7  8  1  0
  9  8  1  0
  9 10  1  0
  9 11  2  0
 10 12  1  0
  2 13  2  0
 14  2  1  0
 13 15  1  0
 16 14  2  0
 15 17  2  0
 17 16  1  0
 17 18  1  0
M  END
>  <ID>  (105) 


>  <MolWt>  (105) 
245.085207

>  <LogP>  (105) 
3.3559

>  <NumHDonors>  (105) 
1

>  <NumHAcceptors>  (105) 
3

$$$$

     RDKit          3D

 17 18  0  0  0  0  0  0  0  0999 V2000
   -1.2237    0.1798    0.8781 N   0  0  0  0  0  0  0  0  0  0  0  0
   -2.5339   -0.0592    0.5046 C   0  0  0  0  0  0  0  0  0  0  0  0
   -0.1352   -0.0515    0.0598 C   0  0  0  0  0  0  0  0  0  0  0  0
    0.2309    0.7364   -0.9743 C   0  0  0  0  0  0  0  0  0  0  0  0
    0.7970   -1.0959    0.4827 C   0  0  0  0  0  0  0  0  0  0  0  0
    1.6210    0.7944   -1.4059 C   0  0  0  0  0  0  0  0  0  0  0  0
    2.0728   -1.0901    0.0546 C   0  0  0  0  0  0  0  0  0  0  0  0
    2.5184   -0.0422   -0.8497 C   0  0  0  0  0  0  0  0  0  0  0  0
    3.9499    0.1606   -1.1449 C   0  0  0  0  0  0  0  0  0  0  0  0
    4.4793    1.0342   -0.2535 O   0  0  0  0  0  0  0  0  0  0  0  0
    4.5508   -0.3757   -2.0613 O   0  0  0  0  0  0  0  0  0  0  0  0
    5.6528    0.5201    0.3706 C   0  0  0  0  0  0  0  0  0  0  0  0
   -3.1695   -1.2243    0.7495 C   0  0  0  0  0  0  0  0  0  0  0  0
   -3.3209    1.0522   -0.0324 C   0  0  0  0  0  0  0  0  0  0  0  0
   -4.6163   -1.3211    0.6622 C   0  0  0  0  0  0  0  0  0  0  0  0
   -4.6563    0.9519   -0.1615 C   0  0  0  0  0  0  0  0  0  0  0  0
   -5.3327   -0.2726    0.2227 C   0  0  0  0  0  0  0  0  0  0  0  0
  1  2  1  0
  1  3  1  0
  4  3  2  0
  3  5  1  0
  6  4  1  0
  5  7  2  0
  8  6  2  0
  7  8  1  0
  9  8  1  0
  9 10  1  0
  9 11  2  0
 10 12  1  0
  2 13  2  0
 14  2  1  0
 13 15  1  0
 16 14  2  0
 15 17  2  0
 17 16  1  0
M  END
>  <ID>  (106) 


>  <MolWt>  (106) 
227.094629

>  <LogP>  (106) 
3.2168

>  <NumHDonors>  (106) 
1

>  <NumHAcceptors>  (106) 
3

$$$$

     RDKit          3D

 19 20  0  0  0  0  0  0  0  0999 V2000
   -1.3295   -0.7128   -0.7413 N   0  0  0  0  0  0  0  0  0  0  0  0
   -2.5789   -0.5727   -0.1505 C   0  0  0  0  0  0  0  0  0  0  0  0
   -0.1725   -0.2088   -0.1709 C   0  0  0  0  0  0  0  0  0  0  0  0
    0.1824    1.0945   -0.1837 C   0  0  0  0  0  0  0  0  0  0  0  0
    0.8003   -1.1825    0.3228 C   0  0  0  0  0  0  0  0  0  0  0  0
    1.5602    1.4960    0.0591 C   0  0  0  0  0  0  0  0  0  0  0  0
    2.0705   -0.8189    0.5783 C   0  0  0  0  0  0  0  0  0  0  0  0
    2.4782    0.5607    0.3687 C   0  0  0  0  0  0  0  0  0  0  0  0
    3.8926    0.9675    0.4778 C   0  0  0  0  0  0  0  0  0  0  0  0
    4.4817    0.8935   -0.7410 O   0  0  0  0  0  0  0  0  0  0  0  0
    4.4341    1.3217    1.5121 O   0  0  0  0  0  0  0  0  0  0  0  0
    5.6909    0.1398   -0.7094 C   0  0  0  0  0  0  0  0  0  0  0  0
   -3.0373   -1.3911    0.8227 C   0  0  0  0  0  0  0  0  0  0  0  0
   -3.4827    0.4715   -0.6464 C   0  0  0  0  0  0  0  0  0  0  0  0
   -4.3554   -1.1948    1.4063 C   0  0  0  0  0  0  0  0  0  0  0  0
   -4.7071    0.6483   -0.1260 C   0  0  0  0  0  0  0  0  0  0  0  0
   -3.0569    1.2580   -1.6578 F   0  0  0  0  0  0  0  0  0  0  0  0
   -5.1470   -0.2145    0.9452 C   0  0  0  0  0  0  0  0  0  0  0  0
   -6.3726   -0.0147    1.4668 F   0  0  0  0  0  0  0  0  0  0  0  0
  1  2  1  0
  1  3  1  0
  4  3  2  0
  3  5  1  0
  6  4  1  0
  5  7  2  0
  8  6  2  0
  7  8  1  0
  9  8  1  0
  9 10  1  0
  9 11  2  0
 10 12  1  0
  2 13  2  0
 14  2  1  0
 13 15  1  0
 16 14  2  0
 14 17  1  0
 15 18  2  0
 18 16  1  0
 18 19  1  0
M  END
>  <ID>  (107) 


>  <MolWt>  (107) 
263.075785

>  <LogP>  (107) 
3.495

>  <NumHDonors>  (107) 
1

>  <NumHAcceptors>  (107) 
3

$$$$

     RDKit          3D

 14 14  0  0  0  0  0  0  0  0999 V2000
   -2.6686   -1.0801    0.0719 C   0  0  0  0  0  0  0  0  0  0  0  0
   -2.8870   -0.7774   -1.2313 O   0  0  0  0  0  0  0  0  0  0  0  0
   -1.3056   -0.6600    0.4536 C   0  0  0  0  0  0  0  0  0  0  0  0
   -3.4610   -1.6243    0.8230 O   0  0  0  0  0  0  0  0  0  0  0  0
   -0.2958   -1.5386    0.2919 C   0  0  0  0  0  0  0  0  0  0  0  0
   -1.0450    0.6757    0.9729 C   0  0  0  0  0  0  0  0  0  0  0  0
    1.0784   -1.1028    0.5064 C   0  0  0  0  0  0  0  0  0  0  0  0
    0.2248    1.0804    1.1625 C   0  0  0  0  0  0  0  0  0  0  0  0
    1.3240    0.1788    0.8450 C   0  0  0  0  0  0  0  0  0  0  0  0
    2.7243    0.6478    0.8376 C   0  0  0  0  0  0  0  0  0  0  0  0
    2.9558    1.3655   -0.2888 O   0  0  0  0  0  0  0  0  0  0  0  0
    3.5330    0.4297    1.7245 O   0  0  0  0  0  0  0  0  0  0  0  0
    4.1027    0.9001   -0.9959 C   0  0  0  0  0  0  0  0  0  0  0  0
   -4.1165   -0.0824   -1.4251 C   0  0  0  0  0  0  0  0  0  0  0  0
  1  2  1  0
  1  3  1  0
  1  4  2  0
  5  3  2  0
  3  6  1  0
  7  5  1  0
  6  8  2  0
  9  7  2  0
  8  9  1  0
 10  9  1  0
 10 11  1  0
 10 12  2  0
 11 13  1  0
  2 14  1  0
M  END
>  <ID>  (108) 


>  <MolWt>  (108) 
194.057909

>  <LogP>  (108) 
1.2598

>  <NumHDonors>  (108) 
0

>  <NumHAcceptors>  (108) 
4

$$$$

     RDKit          3D

 18 19  0  0  0  0  0  0  0  0999 V2000
    0.8538    1.1861    0.0375 N   0  0  0  0  0  0  0  0  0  0  0  0
    2.0188    0.4798   -0.1318 C   0  0  0  0  0  0  0  0  0  0  0  0
    0.1914    1.1978    1.2400 C   0  0  0  0  0  0  0  0  0  0  0  0
   -1.1422    0.5542    1.2001 C   0  0  0  0  0  0  0  0  0  0  0  0
    0.6504    1.7231    2.2488 O   0  0  0  0  0  0  0  0  0  0  0  0
   -1.2036   -0.7871    1.3022 C   0  0  0  0  0  0  0  0  0  0  0  0
   -2.3124    1.3004    0.7645 C   0  0  0  0  0  0  0  0  0  0  0  0
   -2.3116   -1.4997    0.6865 C   0  0  0  0  0  0  0  0  0  0  0  0
   -3.3754    0.6408    0.2690 C   0  0  0  0  0  0  0  0  0  0  0  0
   -3.3645   -0.8190    0.1873 C   0  0  0  0  0  0  0  0  0  0  0  0
   -4.5516   -1.4821   -0.4410 C   0  0  0  0  0  0  0  0  0  0  0  0
    2.0501   -0.6184   -0.9126 C   0  0  0  0  0  0  0  0  0  0  0  0
    3.2795    1.1422    0.2025 C   0  0  0  0  0  0  0  0  0  0  0  0
    3.2471   -0.9277   -1.6946 C   0  0  0  0  0  0  0  0  0  0  0  0
    4.4061    0.8148   -0.4517 C   0  0  0  0  0  0  0  0  0  0  0  0
    3.2825    2.0807    1.2103 O   0  0  0  0  0  0  0  0  0  0  0  0
    3.2033   -2.4453   -3.0913 I   0  0  0  0  0  0  0  0  0  0  0  0
    4.3774   -0.2257   -1.4679 C   0  0  0  0  0  0  0  0  0  0  0  0
  1  2  1  0
  3  1  1  0
  3  4  1  0
  3  5  2  0
  4  6  2  0
  7  4  1  0
  6  8  1  0
  9  7  2  0
  8 10  2  0
 10  9  1  0
 10 11  1  0
  2 12  2  0
 13  2  1  0
 12 14  1  0
 15 13  2  0
 13 16  1  0
 14 17  1  0
 14 18  2  0
 18 15  1  0
M  END
>  <ID>  (109) 


>  <MolWt>  (109) 
352.991277

>  <LogP>  (109) 
3.55752

>  <NumHDonors>  (109) 
2

>  <NumHAcceptors>  (109) 
2

$$$$

     RDKit          3D

 17 18  0  0  0  0  0  0  0  0999 V2000
   -0.8359   -1.9954   -0.0558 N   0  0  0  0  0  0  0  0  0  0  0  0
   -1.8935   -1.1992    0.3326 C   0  0  0  0  0  0  0  0  0  0  0  0
   -0.2496   -1.8383   -1.2956 C   0  0  0  0  0  0  0  0  0  0  0  0
    0.8908   -0.8859   -1.3030 C   0  0  0  0  0  0  0  0  0  0  0  0
   -0.5911   -2.4441   -2.3044 O   0  0  0  0  0  0  0  0  0  0  0  0
    2.0968   -1.3459   -0.9198 C   0  0  0  0  0  0  0  0  0  0  0  0
    0.6686    0.5466   -1.4191 C   0  0  0  0  0  0  0  0  0  0  0  0
    3.0362   -0.4326   -0.2890 C   0  0  0  0  0  0  0  0  0  0  0  0
    1.5777    1.4024   -0.9176 C   0  0  0  0  0  0  0  0  0  0  0  0
    2.7943    0.8952   -0.2839 C   0  0  0  0  0  0  0  0  0  0  0  0
    3.7190    1.8984    0.3329 C   0  0  0  0  0  0  0  0  0  0  0  0
   -3.0816   -1.2750   -0.2990 C   0  0  0  0  0  0  0  0  0  0  0  0
   -1.6893   -0.1528    1.3451 C   0  0  0  0  0  0  0  0  0  0  0  0
   -3.9994   -0.1497   -0.2523 C   0  0  0  0  0  0  0  0  0  0  0  0
   -2.5880    0.8481    1.4452 C   0  0  0  0  0  0  0  0  0  0  0  0
   -0.2209   -0.2541    2.4997 Br  0  0  0  0  0  0  0  0  0  0  0  0
   -3.7592    0.8749    0.5844 C   0  0  0  0  0  0  0  0  0  0  0  0
  1  2  1  0
  3  1  1  0
  3  4  1  0
  3  5  2  0
  4  6  2  0
  7  4  1  0
  6  8  1  0
  9  7  2  0
  8 10  2  0
 10  9  1  0
 10 11  1  0
  2 12  2  0
 13  2  1  0
 12 14  1  0
 15 13  2  0
 13 16  1  0
 14 17  2  0
 17 15  1  0
M  END
>  <ID>  (110) 


>  <MolWt>  (110) 
289.010226

>  <LogP>  (110) 
4.00982

>  <NumHDonors>  (110) 
1

>  <NumHAcceptors>  (110) 
1

$$$$

     RDKit          3D

 17 18  0  0  0  0  0  0  0  0999 V2000
   -0.2460   -1.4706    1.1106 N   0  0  0  0  0  0  0  0  0  0  0  0
   -1.2931   -0.7463    0.5894 C   0  0  0  0  0  0  0  0  0  0  0  0
    0.6757   -0.8551    1.9276 C   0  0  0  0  0  0  0  0  0  0  0  0
    1.7841   -0.1954    1.1940 C   0  0  0  0  0  0  0  0  0  0  0  0
    0.6243   -0.8964    3.1510 O   0  0  0  0  0  0  0  0  0  0  0  0
    1.6980    1.1276    0.9594 C   0  0  0  0  0  0  0  0  0  0  0  0
    2.8893   -0.9634    0.6438 C   0  0  0  0  0  0  0  0  0  0  0  0
    2.5935    1.7452   -0.0055 C   0  0  0  0  0  0  0  0  0  0  0  0
    3.7502   -0.3777   -0.2086 C   0  0  0  0  0  0  0  0  0  0  0  0
    3.5854    1.0283   -0.5733 C   0  0  0  0  0  0  0  0  0  0  0  0
    4.5500    1.6006   -1.5653 C   0  0  0  0  0  0  0  0  0  0  0  0
   -1.3910   -0.5379   -0.7360 C   0  0  0  0  0  0  0  0  0  0  0  0
   -2.4391   -0.4735    1.4437 C   0  0  0  0  0  0  0  0  0  0  0  0
   -2.6821   -0.2368   -1.3326 C   0  0  0  0  0  0  0  0  0  0  0  0
   -3.6232   -0.1414    0.8976 C   0  0  0  0  0  0  0  0  0  0  0  0
   -3.7651   -0.0422   -0.5528 C   0  0  0  0  0  0  0  0  0  0  0  0
   -5.1237    0.2795   -1.0936 C   0  0  0  0  0  0  0  0  0  0  0  0
  1  2  1  0
  3  1  1  0
  3  4  1  0
  3  5  2  0
  4  6  2  0
  7  4  1  0
  6  8  1  0
  9  7  2  0
  8 10  2  0
 10  9  1  0
 10 11  1  0
  2 12  2  0
 13  2  1  0
 12 14  1  0
 15 13  2  0
 14 16  2  0
 16 15  1  0
 16 17  1  0
M  END
>  <ID>  (111) 


>  <MolWt>  (111) 
225.115364

>  <LogP>  (111) 
3.55574

>  <NumHDonors>  (111) 
1

>  <NumHAcceptors>  (111) 
1

$$$$

     RDKit          3D

 17 18  0  0  0  0  0  0  0  0999 V2000
   -0.7948    1.2742    1.4251 N   0  0  0  0  0  0  0  0  0  0  0  0
   -1.8642    0.4610    1.1128 C   0  0  0  0  0  0  0  0  0  0  0  0
   -0.2260    2.0862    0.4644 C   0  0  0  0  0  0  0  0  0  0  0  0
    0.9212    1.4619   -0.2440 C   0  0  0  0  0  0  0  0  0  0  0  0
   -0.5828    3.2344    0.2291 O   0  0  0  0  0  0  0  0  0  0  0  0
    0.6645    0.7437   -1.3533 C   0  0  0  0  0  0  0  0  0  0  0  0
    2.2330    1.3845    0.3795 C   0  0  0  0  0  0  0  0  0  0  0  0
    1.5577   -0.3437   -1.7189 C   0  0  0  0  0  0  0  0  0  0  0  0
    3.0994    0.4328   -0.0134 C   0  0  0  0  0  0  0  0  0  0  0  0
    2.7336   -0.5026   -1.0763 C   0  0  0  0  0  0  0  0  0  0  0  0
    3.7080   -1.5920   -1.4012 C   0  0  0  0  0  0  0  0  0  0  0  0
   -3.0726    0.9831    0.8233 C   0  0  0  0  0  0  0  0  0  0  0  0
   -1.6704   -0.9873    0.9979 C   0  0  0  0  0  0  0  0  0  0  0  0
   -4.0615    0.1803    0.1237 C   0  0  0  0  0  0  0  0  0  0  0  0
   -2.6203   -1.7457    0.4181 C   0  0  0  0  0  0  0  0  0  0  0  0
   -0.2458   -1.7195    1.6442 Cl  0  0  0  0  0  0  0  0  0  0  0  0
   -3.8425   -1.1315   -0.0749 C   0  0  0  0  0  0  0  0  0  0  0  0
  1  2  1  0
  3  1  1  0
  3  4  1  0
  3  5  2  0
  4  6  2  0
  7  4  1  0
  6  8  1  0
  9  7  2  0
  8 10  2  0
 10  9  1  0
 10 11  1  0
  2 12  2  0
 13  2  1  0
 12 14  1  0
 15 13  2  0
 13 16  1  0
 14 17  2  0
 17 15  1  0
M  END
>  <ID>  (112) 


>  <MolWt>  (112) 
245.060742

>  <LogP>  (112) 
3.90072

>  <NumHDonors>  (112) 
1

>  <NumHAcceptors>  (112) 
1

$$$$

     RDKit          3D

 18 19  0  0  0  0  0  0  0  0999 V2000
    0.8093   -1.2388    1.6158 N   0  0  0  0  0  0  0  0  0  0  0  0
    1.8869   -1.0427    0.7788 C   0  0  0  0  0  0  0  0  0  0  0  0
    0.1801   -0.1677    2.2185 C   0  0  0  0  0  0  0  0  0  0  0  0
   -0.9824    0.3516    1.4530 C   0  0  0  0  0  0  0  0  0  0  0  0
    0.5041    0.3034    3.3018 O   0  0  0  0  0  0  0  0  0  0  0  0
   -0.7555    1.3176    0.5433 C   0  0  0  0  0  0  0  0  0  0  0  0
   -2.2541   -0.3546    1.4535 C   0  0  0  0  0  0  0  0  0  0  0  0
   -1.6072    1.3996   -0.6320 C   0  0  0  0  0  0  0  0  0  0  0  0
   -3.0909   -0.2136    0.4093 C   0  0  0  0  0  0  0  0  0  0  0  0
   -2.7355    0.6631   -0.7061 C   0  0  0  0  0  0  0  0  0  0  0  0
   -3.6671    0.7003   -1.8778 C   0  0  0  0  0  0  0  0  0  0  0  0
    3.0641   -0.5938    1.2576 C   0  0  0  0  0  0  0  0  0  0  0  0
    1.7149   -1.1727   -0.6710 C   0  0  0  0  0  0  0  0  0  0  0  0
    4.0004    0.0698    0.3643 C   0  0  0  0  0  0  0  0  0  0  0  0
    2.6223   -0.6316   -1.5057 C   0  0  0  0  0  0  0  0  0  0  0  0
    0.3718   -2.0580   -1.2989 Cl  0  0  0  0  0  0  0  0  0  0  0  0
    3.7829    0.0541   -0.9628 C   0  0  0  0  0  0  0  0  0  0  0  0
    4.8712    0.8170   -2.0549 Cl  0  0  0  0  0  0  0  0  0  0  0  0
  1  2  1  0
  3  1  1  0
  3  4  1  0
  3  5  2  0
  4  6  2  0
  7  4  1  0
  6  8  1  0
  9  7  2  0
  8 10  2  0
 10  9  1  0
 10 11  1  0
  2 12  2  0
 13  2  1  0
 12 14  1  0
 15 13  2  0
 13 16  1  0
 14 17  2  0
 17 15  1  0
 17 18  1  0
M  END
>  <ID>  (113) 


>  <MolWt>  (113) 
279.021769

>  <LogP>  (113) 
4.55412

>  <NumHDonors>  (113) 
1

>  <NumHAcceptors>  (113) 
1

$$$$

     RDKit          3D

 17 18  0  0  0  0  0  0  0  0999 V2000
    0.8101   -1.0751    1.2316 N   0  0  0  0  0  0  0  0  0  0  0  0
    1.8790   -0.4019    0.7024 C   0  0  0  0  0  0  0  0  0  0  0  0
    0.0863   -1.9796    0.4874 C   0  0  0  0  0  0  0  0  0  0  0  0
   -1.1181   -1.3905   -0.1520 C   0  0  0  0  0  0  0  0  0  0  0  0
    0.3572   -3.1696    0.3868 O   0  0  0  0  0  0  0  0  0  0  0  0
   -0.9974   -0.8980   -1.3991 C   0  0  0  0  0  0  0  0  0  0  0  0
   -2.3248   -1.1283    0.6164 C   0  0  0  0  0  0  0  0  0  0  0  0
   -1.9120    0.1397   -1.8472 C   0  0  0  0  0  0  0  0  0  0  0  0
   -3.2154   -0.2252    0.1668 C   0  0  0  0  0  0  0  0  0  0  0  0
   -2.9841    0.4716   -1.0979 C   0  0  0  0  0  0  0  0  0  0  0  0
   -3.9785    1.5161   -1.5015 C   0  0  0  0  0  0  0  0  0  0  0  0
    1.7921    0.8976    0.3588 C   0  0  0  0  0  0  0  0  0  0  0  0
    3.1876   -1.0281    0.8201 C   0  0  0  0  0  0  0  0  0  0  0  0
    2.9957    1.7135    0.2915 C   0  0  0  0  0  0  0  0  0  0  0  0
    4.3047   -0.2851    0.7090 C   0  0  0  0  0  0  0  0  0  0  0  0
    4.2022    1.1423    0.4581 C   0  0  0  0  0  0  0  0  0  0  0  0
    5.6490    2.0689    0.3698 Cl  0  0  0  0  0  0  0  0  0  0  0  0
  1  2  1  0
  3  1  1  0
  3  4  1  0
  3  5  2  0
  4  6  2  0
  7  4  1  0
  6  8  1  0
  9  7  2  0
  8 10  2  0
 10  9  1  0
 10 11  1  0
  2 12  2  0
 13  2  1  0
 12 14  1  0
 15 13  2  0
 14 16  2  0
 16 15  1  0
 16 17  1  0
M  END
>  <ID>  (114) 


>  <MolWt>  (114) 
245.060742

>  <LogP>  (114) 
3.90072

>  <NumHDonors>  (114) 
1

>  <NumHAcceptors>  (114) 
1

$$$$

     RDKit          3D

 19 20  0  0  0  0  0  0  0  0999 V2000
   -0.8041    1.9539   -0.2785 N   0  0  0  0  0  0  0  0  0  0  0  0
   -1.9195    1.1572   -0.4331 C   0  0  0  0  0  0  0  0  0  0  0  0
   -0.0682    1.8939    0.8884 C   0  0  0  0  0  0  0  0  0  0  0  0
    1.0780    0.9501    0.8261 C   0  0  0  0  0  0  0  0  0  0  0  0
   -0.3008    2.5614    1.8892 O   0  0  0  0  0  0  0  0  0  0  0  0
    2.2435    1.3979    0.3226 C   0  0  0  0  0  0  0  0  0  0  0  0
    0.9013   -0.4671    1.0986 C   0  0  0  0  0  0  0  0  0  0  0  0
    3.1992    0.4441   -0.2182 C   0  0  0  0  0  0  0  0  0  0  0  0
    1.8215   -1.3477    0.6651 C   0  0  0  0  0  0  0  0  0  0  0  0
    3.0048   -0.8815   -0.0564 C   0  0  0  0  0  0  0  0  0  0  0  0
    3.9535   -1.9210   -0.5678 C   0  0  0  0  0  0  0  0  0  0  0  0
   -3.0338    1.3310    0.3016 C   0  0  0  0  0  0  0  0  0  0  0  0
   -1.8682    0.0906   -1.4287 C   0  0  0  0  0  0  0  0  0  0  0  0
   -4.0997    0.3413    0.2497 C   0  0  0  0  0  0  0  0  0  0  0  0
   -2.8736   -0.8066   -1.5135 C   0  0  0  0  0  0  0  0  0  0  0  0
   -0.7493    0.0948   -2.2372 O   0  0  0  0  0  0  0  0  0  0  0  0
   -5.5492    0.5557    1.4015 Br  0  0  0  0  0  0  0  0  0  0  0  0
   -4.0193   -0.6841   -0.6206 C   0  0  0  0  0  0  0  0  0  0  0  0
   -2.8789   -2.2083   -2.7456 Br  0  0  0  0  0  0  0  0  0  0  0  0
  1  2  1  0
  3  1  1  0
  3  4  1  0
  3  5  2  0
  4  6  2  0
  7  4  1  0
  6  8  1  0
  9  7  2  0
  8 10  2  0
 10  9  1  0
 10 11  1  0
  2 12  2  0
 13  2  1  0
 12 14  1  0
 15 13  2  0
 13 16  1  0
 14 17  1  0
 14 18  2  0
 18 15  1  0
 15 19  1  0
M  END
>  <ID>  (115) 


>  <MolWt>  (115) 
382.915653

>  <LogP>  (115) 
4.47792

>  <NumHDonors>  (115) 
2

>  <NumHAcceptors>  (115) 
2

$$$$

     RDKit          3D

 17 18  0  0  0  0  0  0  0  0999 V2000
   -0.6902    0.4544    1.5836 N   0  0  0  0  0  0  0  0  0  0  0  0
   -1.6845    0.5841    0.6513 C   0  0  0  0  0  0  0  0  0  0  0  0
   -0.1683   -0.7676    1.9567 C   0  0  0  0  0  0  0  0  0  0  0  0
    0.9595   -1.2153    1.0942 C   0  0  0  0  0  0  0  0  0  0  0  0
   -0.5455   -1.4069    2.9355 O   0  0  0  0  0  0  0  0  0  0  0  0
    2.1794   -0.7077    1.3550 C   0  0  0  0  0  0  0  0  0  0  0  0
    0.7091   -1.8320   -0.2011 C   0  0  0  0  0  0  0  0  0  0  0  0
    3.0712   -0.3822    0.2473 C   0  0  0  0  0  0  0  0  0  0  0  0
    1.5762   -1.6287   -1.2098 C   0  0  0  0  0  0  0  0  0  0  0  0
    2.7793   -0.8151   -0.9977 C   0  0  0  0  0  0  0  0  0  0  0  0
    3.6311   -0.5285   -2.1993 C   0  0  0  0  0  0  0  0  0  0  0  0
   -2.9496    0.1860    0.8656 C   0  0  0  0  0  0  0  0  0  0  0  0
   -1.3966    1.4523   -0.4797 C   0  0  0  0  0  0  0  0  0  0  0  0
   -4.0469    0.8672    0.1839 C   0  0  0  0  0  0  0  0  0  0  0  0
   -2.4040    2.0219   -1.1657 C   0  0  0  0  0  0  0  0  0  0  0  0
   -3.7853    1.7537   -0.7939 C   0  0  0  0  0  0  0  0  0  0  0  0
   -5.1237    2.6846   -1.6962 Br  0  0  0  0  0  0  0  0  0  0  0  0
  1  2  1  0
  3  1  1  0
  3  4  1  0
  3  5  2  0
  4  6  2  0
  7  4  1  0
  6  8  1  0
  9  7  2  0
  8 10  2  0
 10  9  1  0
 10 11  1  0
  2 12  2  0
 13  2  1  0
 12 14  1  0
 15 13  2  0
 14 16  2  0
 16 15  1  0
 16 17  1  0
M  END
>  <ID>  (116) 


>  <MolWt>  (116) 
289.010226

>  <LogP>  (116) 
4.00982

>  <NumHDonors>  (116) 
1

>  <NumHAcceptors>  (116) 
1

$$$$

     RDKit          3D

 17 18  0  0  0  0  0  0  0  0999 V2000
    0.6623   -0.3322   -1.8210 N   0  0  0  0  0  0  0  0  0  0  0  0
    1.7432    0.0523   -1.0508 C   0  0  0  0  0  0  0  0  0  0  0  0
    0.0585   -1.5520   -1.5961 C   0  0  0  0  0  0  0  0  0  0  0  0
   -1.1067   -1.4772   -0.6795 C   0  0  0  0  0  0  0  0  0  0  0  0
    0.3978   -2.5911   -2.1473 O   0  0  0  0  0  0  0  0  0  0  0  0
   -0.8657   -1.6041    0.6392 C   0  0  0  0  0  0  0  0  0  0  0  0
   -2.3626   -0.8916   -1.1249 C   0  0  0  0  0  0  0  0  0  0  0  0
   -1.6515   -0.8250    1.5822 C   0  0  0  0  0  0  0  0  0  0  0  0
   -3.1471   -0.2503   -0.2395 C   0  0  0  0  0  0  0  0  0  0  0  0
   -2.7532   -0.1662    1.1663 C   0  0  0  0  0  0  0  0  0  0  0  0
   -3.6165    0.6504    2.0775 C   0  0  0  0  0  0  0  0  0  0  0  0
    2.9570   -0.5140   -1.2072 C   0  0  0  0  0  0  0  0  0  0  0  0
    1.6420    1.3203   -0.3270 C   0  0  0  0  0  0  0  0  0  0  0  0
    4.1584    0.2145   -0.8314 C   0  0  0  0  0  0  0  0  0  0  0  0
    2.7500    1.9707    0.0650 C   0  0  0  0  0  0  0  0  0  0  0  0
    0.3855    1.8159   -0.0633 O   0  0  0  0  0  0  0  0  0  0  0  0
    4.0587    1.4074   -0.2181 C   0  0  0  0  0  0  0  0  0  0  0  0
  1  2  1  0
  3  1  1  0
  3  4  1  0
  3  5  2  0
  4  6  2  0
  7  4  1  0
  6  8  1  0
  9  7  2  0
  8 10  2  0
 10  9  1  0
 10 11  1  0
  2 12  2  0
 13  2  1  0
 12 14  1  0
 15 13  2  0
 13 16  1  0
 14 17  2  0
 17 15  1  0
M  END
>  <ID>  (117) 


>  <MolWt>  (117) 
227.094629

>  <LogP>  (117) 
2.95292

>  <NumHDonors>  (117) 
2

>  <NumHAcceptors>  (117) 
2

$$$$

     RDKit          3D

 18 19  0  0  0  0  0  0  0  0999 V2000
    0.4884   -0.2017    1.6786 N   0  0  0  0  0  0  0  0  0  0  0  0
    1.3615    0.2828    0.7237 C   0  0  0  0  0  0  0  0  0  0  0  0
   -0.5389    0.5960    2.1387 C   0  0  0  0  0  0  0  0  0  0  0  0
   -1.8122    0.4112    1.3988 C   0  0  0  0  0  0  0  0  0  0  0  0
   -0.4389    1.3442    3.1025 O   0  0  0  0  0  0  0  0  0  0  0  0
   -2.5856   -0.6333    1.7519 C   0  0  0  0  0  0  0  0  0  0  0  0
   -2.0300    1.0663    0.1183 C   0  0  0  0  0  0  0  0  0  0  0  0
   -3.3647   -1.3179    0.7323 C   0  0  0  0  0  0  0  0  0  0  0  0
   -2.8188    0.4812   -0.8013 C   0  0  0  0  0  0  0  0  0  0  0  0
   -3.4820   -0.7873   -0.5029 C   0  0  0  0  0  0  0  0  0  0  0  0
   -4.2771   -1.4232   -1.6013 C   0  0  0  0  0  0  0  0  0  0  0  0
    2.2833    1.2202    1.0190 C   0  0  0  0  0  0  0  0  0  0  0  0
    1.4983   -0.4773   -0.5172 C   0  0  0  0  0  0  0  0  0  0  0  0
    3.4815    1.3526    0.2048 C   0  0  0  0  0  0  0  0  0  0  0  0
    2.5832   -0.3247   -1.2945 C   0  0  0  0  0  0  0  0  0  0  0  0
    0.4862   -1.3463   -0.8570 O   0  0  0  0  0  0  0  0  0  0  0  0
    3.6341    0.6153   -0.9142 C   0  0  0  0  0  0  0  0  0  0  0  0
    4.8312    0.7078   -1.8081 C   0  0  0  0  0  0  0  0  0  0  0  0
  1  2  1  0
  3  1  1  0
  3  4  1  0
  3  5  2  0
  4  6  2  0
  7  4  1  0
  6  8  1  0
  9  7  2  0
  8 10  2  0
 10  9  1  0
 10 11  1  0
  2 12  2  0
 13  2  1  0
 12 14  1  0
 15 13  2  0
 13 16  1  0
 14 17  2  0
 17 15  1  0
 17 18  1  0
M  END
>  <ID>  (118) 


>  <MolWt>  (118) 
241.110279

>  <LogP>  (118) 
3.26134

>  <NumHDonors>  (118) 
2

>  <NumHAcceptors>  (118) 
2

$$$$

     RDKit          3D

 17 18  0  0  0  0  0  0  0  0999 V2000
    0.9401    1.5864   -0.5660 N   0  0  0  0  0  0  0  0  0  0  0  0
    2.0699    0.8034   -0.4787 C   0  0  0  0  0  0  0  0  0  0  0  0
    0.1698    1.8122    0.5575 C   0  0  0  0  0  0  0  0  0  0  0  0
   -1.0913    1.0276    0.5784 C   0  0  0  0  0  0  0  0  0  0  0  0
    0.4479    2.6102    1.4445 O   0  0  0  0  0  0  0  0  0  0  0  0
   -1.0601   -0.2206    1.0814 C   0  0  0  0  0  0  0  0  0  0  0  0
   -2.2726    1.4948   -0.1297 C   0  0  0  0  0  0  0  0  0  0  0  0
   -2.0624   -1.1848    0.6575 C   0  0  0  0  0  0  0  0  0  0  0  0
   -3.2416    0.6201   -0.4559 C   0  0  0  0  0  0  0  0  0  0  0  0
   -3.1178   -0.7887   -0.0842 C   0  0  0  0  0  0  0  0  0  0  0  0
   -4.1945   -1.7209   -0.5467 C   0  0  0  0  0  0  0  0  0  0  0  0
    3.2214    1.2763    0.0365 C   0  0  0  0  0  0  0  0  0  0  0  0
    2.0571   -0.5164   -1.0953 C   0  0  0  0  0  0  0  0  0  0  0  0
    4.4216    0.4532    0.0202 C   0  0  0  0  0  0  0  0  0  0  0  0
    3.1650   -1.2746   -1.1240 C   0  0  0  0  0  0  0  0  0  0  0  0
    0.9127   -0.9594   -1.6563 F   0  0  0  0  0  0  0  0  0  0  0  0
    4.3946   -0.7727   -0.5340 C   0  0  0  0  0  0  0  0  0  0  0  0
  1  2  1  0
  3  1  1  0
  3  4  1  0
  3  5  2  0
  4  6  2  0
  7  4  1  0
  6  8  1  0
  9  7  2  0
  8 10  2  0
 10  9  1  0
 10 11  1  0
  2 12  2  0
 13  2  1  0
 12 14  1  0
 15 13  2  0
 13 16  1  0
 14 17  2  0
 17 15  1  0
M  END
>  <ID>  (119) 


>  <MolWt>  (119) 
229.090292

>  <LogP>  (119) 
3.38642

>  <NumHDonors>  (119) 
1

>  <NumHAcceptors>  (119) 
1

$$$$

     RDKit          3D

 17 18  0  0  0  0  0  0  0  0999 V2000
    0.7428    1.7103   -0.2093 N   0  0  0  0  0  0  0  0  0  0  0  0
    1.8639    0.9540   -0.0211 C   0  0  0  0  0  0  0  0  0  0  0  0
    0.0119    1.7009   -1.3708 C   0  0  0  0  0  0  0  0  0  0  0  0
   -1.1184    0.7388   -1.3435 C   0  0  0  0  0  0  0  0  0  0  0  0
    0.2232    2.4327   -2.3281 O   0  0  0  0  0  0  0  0  0  0  0  0
   -2.2698    1.1286   -0.7619 C   0  0  0  0  0  0  0  0  0  0  0  0
   -0.9247   -0.6551   -1.7159 C   0  0  0  0  0  0  0  0  0  0  0  0
   -3.1873    0.1200   -0.2522 C   0  0  0  0  0  0  0  0  0  0  0  0
   -1.8121   -1.5819   -1.3062 C   0  0  0  0  0  0  0  0  0  0  0  0
   -2.9791   -1.1878   -0.5154 C   0  0  0  0  0  0  0  0  0  0  0  0
   -3.8950   -2.2782   -0.0517 C   0  0  0  0  0  0  0  0  0  0  0  0
    3.0672    1.3623   -0.4702 C   0  0  0  0  0  0  0  0  0  0  0  0
    1.7948   -0.0769    1.0069 C   0  0  0  0  0  0  0  0  0  0  0  0
    4.2763    0.9714    0.2378 C   0  0  0  0  0  0  0  0  0  0  0  0
    2.9175   -0.4827    1.6274 C   0  0  0  0  0  0  0  0  0  0  0  0
    4.1928    0.0877    1.2451 C   0  0  0  0  0  0  0  0  0  0  0  0
    5.2949   -0.3050    1.9119 F   0  0  0  0  0  0  0  0  0  0  0  0
  1  2  1  0
  3  1  1  0
  3  4  1  0
  3  5  2  0
  4  6  2  0
  7  4  1  0
  6  8  1  0
  9  7  2  0
  8 10  2  0
 10  9  1  0
 10 11  1  0
  2 12  2  0
 13  2  1  0
 12 14  1  0
 15 13  2  0
 14 16  2  0
 16 15  1  0
 16 17  1  0
M  END
>  <ID>  (120) 


>  <MolWt>  (120) 
229.090292

>  <LogP>  (120) 
3.38642

>  <NumHDonors>  (120) 
1

>  <NumHAcceptors>  (120) 
1

$$$$

     RDKit          3D

 16 17  0  0  0  0  0  0  0  0999 V2000
   -0.9132   -1.6812   -0.2013 N   0  0  0  0  0  0  0  0  0  0  0  0
   -1.9073   -0.8306    0.2031 C   0  0  0  0  0  0  0  0  0  0  0  0
   -0.3112   -1.5669   -1.4329 C   0  0  0  0  0  0  0  0  0  0  0  0
    0.9040   -0.7132   -1.4227 C   0  0  0  0  0  0  0  0  0  0  0  0
   -0.6913   -2.1395   -2.4468 O   0  0  0  0  0  0  0  0  0  0  0  0
    2.0760   -1.2749   -1.0708 C   0  0  0  0  0  0  0  0  0  0  0  0
    0.8135    0.7267   -1.6015 C   0  0  0  0  0  0  0  0  0  0  0  0
    3.1563   -0.4276   -0.5901 C   0  0  0  0  0  0  0  0  0  0  0  0
    1.8415    1.5097   -1.2275 C   0  0  0  0  0  0  0  0  0  0  0  0
    3.0529    0.9159   -0.6640 C   0  0  0  0  0  0  0  0  0  0  0  0
    4.1302    1.8512   -0.2091 C   0  0  0  0  0  0  0  0  0  0  0  0
   -1.6818    0.1261    1.1238 C   0  0  0  0  0  0  0  0  0  0  0  0
   -3.2758   -1.1921   -0.1348 C   0  0  0  0  0  0  0  0  0  0  0  0
   -2.7862    0.6536    1.9094 C   0  0  0  0  0  0  0  0  0  0  0  0
   -4.3031   -0.6654    0.5561 C   0  0  0  0  0  0  0  0  0  0  0  0
   -4.0469    0.2740    1.6342 C   0  0  0  0  0  0  0  0  0  0  0  0
  1  2  1  0
  3  1  1  0
  3  4  1  0
  3  5  2  0
  4  6  2  0
  7  4  1  0
  6  8  1  0
  9  7  2  0
  8 10  2  0
 10  9  1  0
 10 11  1  0
  2 12  2  0
 13  2  1  0
 12 14  1  0
 15 13  2  0
 14 16  2  0
 16 15  1  0
M  END
>  <ID>  (121) 


>  <MolWt>  (121) 
211.099714

>  <LogP>  (121) 
3.24732

>  <NumHDonors>  (121) 
1

>  <NumHAcceptors>  (121) 
1

$$$$

     RDKit          3D

 18 19  0  0  0  0  0  0  0  0999 V2000
    0.8909    1.5567   -0.2465 N   0  0  0  0  0  0  0  0  0  0  0  0
    2.0585    0.8278   -0.2688 C   0  0  0  0  0  0  0  0  0  0  0  0
    0.1800    1.6876    0.9303 C   0  0  0  0  0  0  0  0  0  0  0  0
   -1.0729    0.8907    0.9564 C   0  0  0  0  0  0  0  0  0  0  0  0
    0.5070    2.4081    1.8656 O   0  0  0  0  0  0  0  0  0  0  0  0
   -2.1916    1.4644    0.4746 C   0  0  0  0  0  0  0  0  0  0  0  0
   -1.0554   -0.5329    1.2494 C   0  0  0  0  0  0  0  0  0  0  0  0
   -3.2653    0.6217   -0.0275 C   0  0  0  0  0  0  0  0  0  0  0  0
   -2.0827   -1.3058    0.8525 C   0  0  0  0  0  0  0  0  0  0  0  0
   -3.2220   -0.7151    0.1519 C   0  0  0  0  0  0  0  0  0  0  0  0
   -4.2974   -1.6444   -0.3197 C   0  0  0  0  0  0  0  0  0  0  0  0
    3.2160    1.3329    0.2035 C   0  0  0  0  0  0  0  0  0  0  0  0
    2.0714   -0.4534   -0.9660 C   0  0  0  0  0  0  0  0  0  0  0  0
    4.4547    0.5842    0.0470 C   0  0  0  0  0  0  0  0  0  0  0  0
    3.2122   -1.1441   -1.1195 C   0  0  0  0  0  0  0  0  0  0  0  0
    0.9142   -0.9273   -1.4723 F   0  0  0  0  0  0  0  0  0  0  0  0
    4.4413   -0.6008   -0.5844 C   0  0  0  0  0  0  0  0  0  0  0  0
    5.5745   -1.3124   -0.7382 F   0  0  0  0  0  0  0  0  0  0  0  0
  1  2  1  0
  3  1  1  0
  3  4  1  0
  3  5  2  0
  4  6  2  0
  7  4  1  0
  6  8  1  0
  9  7  2  0
  8 10  2  0
 10  9  1  0
 10 11  1  0
  2 12  2  0
 13  2  1  0
 12 14  1  0
 15 13  2  0
 13 16  1  0
 14 17  2  0
 17 15  1  0
 17 18  1  0
M  END
>  <ID>  (122) 


>  <MolWt>  (122) 
247.08087

>  <LogP>  (122) 
3.52552

>  <NumHDonors>  (122) 
1

>  <NumHAcceptors>  (122) 
1

$$$$

     RDKit          3D

 20 21  0  0  0  0  0  0  0  0999 V2000
   -1.8794   -1.7304   -1.0949 C   0  0  0  0  0  0  0  0  0  0  0  0
   -1.9859   -0.6527   -0.0762 C   0  0  0  0  0  0  0  0  0  0  0  0
   -0.6729   -2.3765   -1.1076 N   0  0  0  0  0  0  0  0  0  0  0  0
   -2.8389   -2.1110   -1.7569 O   0  0  0  0  0  0  0  0  0  0  0  0
    0.3213   -1.8387   -1.8777 C   0  0  0  0  0  0  0  0  0  0  0  0
    1.2159   -0.8964   -1.1556 C   0  0  0  0  0  0  0  0  0  0  0  0
    0.5438   -2.1991   -3.0266 O   0  0  0  0  0  0  0  0  0  0  0  0
    2.0087   -1.3723   -0.1749 C   0  0  0  0  0  0  0  0  0  0  0  0
    1.3841    0.4729   -1.6195 C   0  0  0  0  0  0  0  0  0  0  0  0
    2.8831   -0.4632    0.5513 C   0  0  0  0  0  0  0  0  0  0  0  0
    2.2361    1.2989   -0.9842 C   0  0  0  0  0  0  0  0  0  0  0  0
    2.9986    0.8259    0.1693 C   0  0  0  0  0  0  0  0  0  0  0  0
    3.8938    1.8122    0.8575 C   0  0  0  0  0  0  0  0  0  0  0  0
   -2.2425   -1.0558    1.1864 C   0  0  0  0  0  0  0  0  0  0  0  0
   -2.2803    0.7191   -0.4650 C   0  0  0  0  0  0  0  0  0  0  0  0
   -3.0246   -0.2090    2.0837 C   0  0  0  0  0  0  0  0  0  0  0  0
   -2.9388    1.5328    0.3819 C   0  0  0  0  0  0  0  0  0  0  0  0
   -1.8391    1.1077   -1.7056 O   0  0  0  0  0  0  0  0  0  0  0  0
   -3.5853   -0.9119    3.9404 I   0  0  0  0  0  0  0  0  0  0  0  0
   -3.3466    1.0395    1.6890 C   0  0  0  0  0  0  0  0  0  0  0  0
  1  2  1  0
  1  3  1  0
  1  4  2  0
  5  3  1  0
  5  6  1  0
  5  7  2  0
  6  8  2  0
  9  6  1  0
  8 10  1  0
 11  9  2  0
 10 12  2  0
 12 11  1  0
 12 13  1  0
  2 14  2  0
 15  2  1  0
 14 16  1  0
 17 15  2  0
 15 18  1  0
 16 19  1  0
 16 20  2  0
 20 17  1  0
M  END
>  <ID>  (123) 


>  <MolWt>  (123) 
380.986191

>  <LogP>  (123) 
2.87542

>  <NumHDonors>  (123) 
2

>  <NumHAcceptors>  (123) 
3

$$$$

     RDKit          3D

 19 20  0  0  0  0  0  0  0  0999 V2000
   -1.3721   -0.0866    0.4831 C   0  0  0  0  0  0  0  0  0  0  0  0
   -2.8058    0.1654    0.1919 C   0  0  0  0  0  0  0  0  0  0  0  0
   -0.5240    0.6296   -0.3105 N   0  0  0  0  0  0  0  0  0  0  0  0
   -0.9931   -0.8127    1.3941 O   0  0  0  0  0  0  0  0  0  0  0  0
    0.0664   -0.0963   -1.3101 C   0  0  0  0  0  0  0  0  0  0  0  0
    1.5289   -0.2914   -1.1290 C   0  0  0  0  0  0  0  0  0  0  0  0
   -0.5198   -0.5238   -2.2980 O   0  0  0  0  0  0  0  0  0  0  0  0
    2.3452    0.5885   -1.7396 C   0  0  0  0  0  0  0  0  0  0  0  0
    2.0494   -1.1569   -0.0825 C   0  0  0  0  0  0  0  0  0  0  0  0
    3.6507    0.8706   -1.1645 C   0  0  0  0  0  0  0  0  0  0  0  0
    3.2854   -0.9435    0.4043 C   0  0  0  0  0  0  0  0  0  0  0  0
    4.1133    0.1352   -0.1321 C   0  0  0  0  0  0  0  0  0  0  0  0
    5.4542    0.3525    0.4985 C   0  0  0  0  0  0  0  0  0  0  0  0
   -3.4292   -0.7778   -0.5445 C   0  0  0  0  0  0  0  0  0  0  0  0
   -3.5974    1.0635    1.0316 C   0  0  0  0  0  0  0  0  0  0  0  0
   -4.8051   -1.1317   -0.2404 C   0  0  0  0  0  0  0  0  0  0  0  0
   -4.9003    0.7849    1.2412 C   0  0  0  0  0  0  0  0  0  0  0  0
   -2.8014    2.5995    1.7347 Br  0  0  0  0  0  0  0  0  0  0  0  0
   -5.5117   -0.3811    0.6227 C   0  0  0  0  0  0  0  0  0  0  0  0
  1  2  1  0
  1  3  1  0
  1  4  2  0
  5  3  1  0
  5  6  1  0
  5  7  2  0
  6  8  2  0
  9  6  1  0
  8 10  1  0
 11  9  2  0
 10 12  2  0
 12 11  1  0
 12 13  1  0
  2 14  2  0
 15  2  1  0
 14 16  1  0
 17 15  2  0
 15 18  1  0
 16 19  2  0
 19 17  1  0
M  END
>  <ID>  (124) 


>  <MolWt>  (124) 
317.005141

>  <LogP>  (124) 
3.32772

>  <NumHDonors>  (124) 
1

>  <NumHAcceptors>  (124) 
2

$$$$

     RDKit          3D

 19 20  0  0  0  0  0  0  0  0999 V2000
    0.5645   -0.4881   -1.1637 C   0  0  0  0  0  0  0  0  0  0  0  0
    2.0493   -0.4992   -1.2431 C   0  0  0  0  0  0  0  0  0  0  0  0
    0.0694    0.3415   -0.1924 N   0  0  0  0  0  0  0  0  0  0  0  0
   -0.1211   -1.1411   -1.9417 O   0  0  0  0  0  0  0  0  0  0  0  0
   -0.5222   -0.3051    0.8528 C   0  0  0  0  0  0  0  0  0  0  0  0
   -2.0019   -0.2006    0.8571 C   0  0  0  0  0  0  0  0  0  0  0  0
    0.1045   -0.8378    1.7609 O   0  0  0  0  0  0  0  0  0  0  0  0
   -2.7241   -1.1057    0.1699 C   0  0  0  0  0  0  0  0  0  0  0  0
   -2.6729    0.8224    1.6447 C   0  0  0  0  0  0  0  0  0  0  0  0
   -4.1734   -0.9919    0.1293 C   0  0  0  0  0  0  0  0  0  0  0  0
   -4.0156    0.9077    1.6282 C   0  0  0  0  0  0  0  0  0  0  0  0
   -4.8045   -0.0250    0.8267 C   0  0  0  0  0  0  0  0  0  0  0  0
   -6.2917    0.1484    0.8305 C   0  0  0  0  0  0  0  0  0  0  0  0
    2.6236    0.3389   -2.1269 C   0  0  0  0  0  0  0  0  0  0  0  0
    2.8551   -1.1193   -0.2033 C   0  0  0  0  0  0  0  0  0  0  0  0
    3.9651    0.8385   -1.8707 C   0  0  0  0  0  0  0  0  0  0  0  0
    4.1213   -0.7085   -0.0084 C   0  0  0  0  0  0  0  0  0  0  0  0
    4.6956    0.3373   -0.8530 C   0  0  0  0  0  0  0  0  0  0  0  0
    6.0903    0.7852   -0.5413 C   0  0  0  0  0  0  0  0  0  0  0  0
  1  2  1  0
  1  3  1  0
  1  4  2  0
  5  3  1  0
  5  6  1  0
  5  7  2  0
  6  8  2  0
  9  6  1  0
  8 10  1  0
 11  9  2  0
 10 12  2  0
 12 11  1  0
 12 13  1  0
  2 14  2  0
 15  2  1  0
 14 16  1  0
 17 15  2  0
 16 18  2  0
 18 17  1  0
 18 19  1  0
M  END
>  <ID>  (125) 


>  <MolWt>  (125) 
253.110279

>  <LogP>  (125) 
2.87364

>  <NumHDonors>  (125) 
1

>  <NumHAcceptors>  (125) 
2

$$$$

     RDKit          3D

 19 20  0  0  0  0  0  0  0  0999 V2000
   -1.2231    1.9686    0.8754 C   0  0  0  0  0  0  0  0  0  0  0  0
   -1.9752    1.0562   -0.0194 C   0  0  0  0  0  0  0  0  0  0  0  0
   -0.9168    1.4016    2.0850 N   0  0  0  0  0  0  0  0  0  0  0  0
   -0.9528    3.1180    0.5527 O   0  0  0  0  0  0  0  0  0  0  0  0
    0.3980    1.3835    2.4589 C   0  0  0  0  0  0  0  0  0  0  0  0
    1.3046    0.5859    1.5953 C   0  0  0  0  0  0  0  0  0  0  0  0
    0.7928    1.9357    3.4801 O   0  0  0  0  0  0  0  0  0  0  0  0
    1.2675   -0.7572    1.6784 C   0  0  0  0  0  0  0  0  0  0  0  0
    2.1023    1.2285    0.5627 C   0  0  0  0  0  0  0  0  0  0  0  0
    1.7979   -1.5560    0.5845 C   0  0  0  0  0  0  0  0  0  0  0  0
    2.6519    0.4843   -0.4142 C   0  0  0  0  0  0  0  0  0  0  0  0
    2.4652   -0.9661   -0.4291 C   0  0  0  0  0  0  0  0  0  0  0  0
    3.0536   -1.7216   -1.5803 C   0  0  0  0  0  0  0  0  0  0  0  0
   -1.2766    0.4434   -0.9964 C   0  0  0  0  0  0  0  0  0  0  0  0
   -3.3330    0.6193    0.2785 C   0  0  0  0  0  0  0  0  0  0  0  0
   -1.7333   -0.8404   -1.5033 C   0  0  0  0  0  0  0  0  0  0  0  0
   -3.7957   -0.5231   -0.2655 C   0  0  0  0  0  0  0  0  0  0  0  0
   -4.3420    1.5753    1.2982 Cl  0  0  0  0  0  0  0  0  0  0  0  0
   -2.9465   -1.3040   -1.1533 C   0  0  0  0  0  0  0  0  0  0  0  0
  1  2  1  0
  1  3  1  0
  1  4  2  0
  5  3  1  0
  5  6  1  0
  5  7  2  0
  6  8  2  0
  9  6  1  0
  8 10  1  0
 11  9  2  0
 10 12  2  0
 12 11  1  0
 12 13  1  0
  2 14  2  0
 15  2  1  0
 14 16  1  0
 17 15  2  0
 15 18  1  0
 16 19  2  0
 19 17  1  0
M  END
>  <ID>  (126) 


>  <MolWt>  (126) 
273.055656

>  <LogP>  (126) 
3.21862

>  <NumHDonors>  (126) 
1

>  <NumHAcceptors>  (126) 
2

$$$$

     RDKit          3D

 20 21  0  0  0  0  0  0  0  0999 V2000
    0.5931    0.4896   -2.5136 C   0  0  0  0  0  0  0  0  0  0  0  0
    1.6324   -0.0757   -1.6160 C   0  0  0  0  0  0  0  0  0  0  0  0
    0.0880    1.6872   -2.0827 N   0  0  0  0  0  0  0  0  0  0  0  0
    0.2728   -0.0621   -3.5577 O   0  0  0  0  0  0  0  0  0  0  0  0
   -1.2371    1.7193   -1.7460 C   0  0  0  0  0  0  0  0  0  0  0  0
   -1.5999    0.9822   -0.5098 C   0  0  0  0  0  0  0  0  0  0  0  0
   -2.0610    2.3751   -2.3729 O   0  0  0  0  0  0  0  0  0  0  0  0
   -1.2410    1.4922    0.6837 C   0  0  0  0  0  0  0  0  0  0  0  0
   -2.2352   -0.3239   -0.5809 C   0  0  0  0  0  0  0  0  0  0  0  0
   -1.2306    0.6289    1.8546 C   0  0  0  0  0  0  0  0  0  0  0  0
   -2.2926   -1.0969    0.5192 C   0  0  0  0  0  0  0  0  0  0  0  0
   -1.7388   -0.6196    1.7853 C   0  0  0  0  0  0  0  0  0  0  0  0
   -1.7817   -1.5562    2.9529 C   0  0  0  0  0  0  0  0  0  0  0  0
    1.2713   -1.1414   -0.8728 C   0  0  0  0  0  0  0  0  0  0  0  0
    2.8323    0.6694   -1.2531 C   0  0  0  0  0  0  0  0  0  0  0  0
    1.7836   -1.2624    0.4832 C   0  0  0  0  0  0  0  0  0  0  0  0
    3.3835    0.4888   -0.0372 C   0  0  0  0  0  0  0  0  0  0  0  0
    3.5568    1.7323   -2.3981 Cl  0  0  0  0  0  0  0  0  0  0  0  0
    2.7948   -0.4700    0.8849 C   0  0  0  0  0  0  0  0  0  0  0  0
    3.4367   -0.5827    2.4771 Cl  0  0  0  0  0  0  0  0  0  0  0  0
  1  2  1  0
  1  3  1  0
  1  4  2  0
  5  3  1  0
  5  6  1  0
  5  7  2  0
  6  8  2  0
  9  6  1  0
  8 10  1  0
 11  9  2  0
 10 12  2  0
 12 11  1  0
 12 13  1  0
  2 14  2  0
 15  2  1  0
 14 16  1  0
 17 15  2  0
 15 18  1  0
 16 19  2  0
 19 17  1  0
 19 20  1  0
M  END
>  <ID>  (127) 


>  <MolWt>  (127) 
307.016684

>  <LogP>  (127) 
3.87202

>  <NumHDonors>  (127) 
1

>  <NumHAcceptors>  (127) 
2

$$$$

     RDKit          3D

 19 20  0  0  0  0  0  0  0  0999 V2000
    1.2246   -0.4146   -1.0704 C   0  0  0  0  0  0  0  0  0  0  0  0
    2.7122   -0.4091   -1.0616 C   0  0  0  0  0  0  0  0  0  0  0  0
    0.6625    0.4455   -0.1655 N   0  0  0  0  0  0  0  0  0  0  0  0
    0.5962   -1.1000   -1.8679 O   0  0  0  0  0  0  0  0  0  0  0  0
    0.0291   -0.1692    0.8748 C   0  0  0  0  0  0  0  0  0  0  0  0
   -1.4495   -0.0684    0.8167 C   0  0  0  0  0  0  0  0  0  0  0  0
    0.6203   -0.6748    1.8211 O   0  0  0  0  0  0  0  0  0  0  0  0
   -2.1398   -0.9582    0.0785 C   0  0  0  0  0  0  0  0  0  0  0  0
   -2.1546    0.9632    1.5623 C   0  0  0  0  0  0  0  0  0  0  0  0
   -3.5749   -0.7942   -0.0914 C   0  0  0  0  0  0  0  0  0  0  0  0
   -3.4882    1.0883    1.4347 C   0  0  0  0  0  0  0  0  0  0  0  0
   -4.2331    0.1891    0.5561 C   0  0  0  0  0  0  0  0  0  0  0  0
   -5.7081    0.4146    0.4278 C   0  0  0  0  0  0  0  0  0  0  0  0
    3.3581   -1.1095   -0.1089 C   0  0  0  0  0  0  0  0  0  0  0  0
    3.4553    0.4731   -1.9509 C   0  0  0  0  0  0  0  0  0  0  0  0
    4.7553   -0.8143    0.1739 C   0  0  0  0  0  0  0  0  0  0  0  0
    4.7628    0.7008   -1.7240 C   0  0  0  0  0  0  0  0  0  0  0  0
    5.4277    0.0549   -0.6030 C   0  0  0  0  0  0  0  0  0  0  0  0
    7.0827    0.4211   -0.3085 Cl  0  0  0  0  0  0  0  0  0  0  0  0
  1  2  1  0
  1  3  1  0
  1  4  2  0
  5  3  1  0
  5  6  1  0
  5  7  2  0
  6  8  2  0
  9  6  1  0
  8 10  1  0
 11  9  2  0
 10 12  2  0
 12 11  1  0
 12 13  1  0
  2 14  2  0
 15  2  1  0
 14 16  1  0
 17 15  2  0
 16 18  2  0
 18 17  1  0
 18 19  1  0
M  END
>  <ID>  (128) 


>  <MolWt>  (128) 
273.055656

>  <LogP>  (128) 
3.21862

>  <NumHDonors>  (128) 
1

>  <NumHAcceptors>  (128) 
2

$$$$

     RDKit          3D

 19 20  0  0  0  0  0  0  0  0999 V2000
   -0.9950   -2.0426   -1.4829 C   0  0  0  0  0  0  0  0  0  0  0  0
   -1.5734   -0.6739   -1.4687 C   0  0  0  0  0  0  0  0  0  0  0  0
   -0.9410   -2.6258   -0.2458 N   0  0  0  0  0  0  0  0  0  0  0  0
   -0.6790   -2.6042   -2.5231 O   0  0  0  0  0  0  0  0  0  0  0  0
    0.2976   -2.8057    0.3044 C   0  0  0  0  0  0  0  0  0  0  0  0
    0.9987   -1.5669    0.7257 C   0  0  0  0  0  0  0  0  0  0  0  0
    0.7640   -3.9207    0.5120 O   0  0  0  0  0  0  0  0  0  0  0  0
    2.0841   -1.1905    0.0209 C   0  0  0  0  0  0  0  0  0  0  0  0
    0.4776   -0.7071    1.7783 C   0  0  0  0  0  0  0  0  0  0  0  0
    2.5778    0.1728    0.1403 C   0  0  0  0  0  0  0  0  0  0  0  0
    0.9824    0.5316    1.9351 C   0  0  0  0  0  0  0  0  0  0  0  0
    2.0547    1.0098    1.0620 C   0  0  0  0  0  0  0  0  0  0  0  0
    2.5102    2.4242    1.2476 C   0  0  0  0  0  0  0  0  0  0  0  0
   -0.7530    0.3624   -1.7255 C   0  0  0  0  0  0  0  0  0  0  0  0
   -2.9343   -0.4224   -1.0150 C   0  0  0  0  0  0  0  0  0  0  0  0
   -1.1099    1.6910   -1.2504 C   0  0  0  0  0  0  0  0  0  0  0  0
   -3.2946    0.8235   -0.6511 C   0  0  0  0  0  0  0  0  0  0  0  0
   -2.3329    1.9181   -0.7327 C   0  0  0  0  0  0  0  0  0  0  0  0
   -2.8570    3.5955   -0.1125 Br  0  0  0  0  0  0  0  0  0  0  0  0
  1  2  1  0
  1  3  1  0
  1  4  2  0
  5  3  1  0
  5  6  1  0
  5  7  2  0
  6  8  2  0
  9  6  1  0
  8 10  1  0
 11  9  2  0
 10 12  2  0
 12 11  1  0
 12 13  1  0
  2 14  2  0
 15  2  1  0
 14 16  1  0
 17 15  2  0
 16 18  2  0
 18 17  1  0
 18 19  1  0
M  END
>  <ID>  (129) 


>  <MolWt>  (129) 
317.005141

>  <LogP>  (129) 
3.32772

>  <NumHDonors>  (129) 
1

>  <NumHAcceptors>  (129) 
2

$$$$

     RDKit          3D

 19 20  0  0  0  0  0  0  0  0999 V2000
   -1.4896   -0.5952   -1.4019 C   0  0  0  0  0  0  0  0  0  0  0  0
   -1.9314   -0.8042   -0.0009 C   0  0  0  0  0  0  0  0  0  0  0  0
   -1.2580    0.7141   -1.7234 N   0  0  0  0  0  0  0  0  0  0  0  0
   -1.4702   -1.5355   -2.1891 O   0  0  0  0  0  0  0  0  0  0  0  0
   -0.1088    0.9903   -2.4099 C   0  0  0  0  0  0  0  0  0  0  0  0
    1.1452    0.8376   -1.6313 C   0  0  0  0  0  0  0  0  0  0  0  0
   -0.1140    1.4130   -3.5602 O   0  0  0  0  0  0  0  0  0  0  0  0
    1.5114    1.8337   -0.8027 C   0  0  0  0  0  0  0  0  0  0  0  0
    1.8749   -0.4201   -1.6234 C   0  0  0  0  0  0  0  0  0  0  0  0
    2.4455    1.5565    0.2773 C   0  0  0  0  0  0  0  0  0  0  0  0
    2.7904   -0.6525   -0.6654 C   0  0  0  0  0  0  0  0  0  0  0  0
    3.0677    0.3614    0.3507 C   0  0  0  0  0  0  0  0  0  0  0  0
    4.0546    0.0111    1.4212 C   0  0  0  0  0  0  0  0  0  0  0  0
   -1.1443   -0.3974    1.0151 C   0  0  0  0  0  0  0  0  0  0  0  0
   -3.3210   -1.1505    0.2766 C   0  0  0  0  0  0  0  0  0  0  0  0
   -1.7663    0.1209    2.2243 C   0  0  0  0  0  0  0  0  0  0  0  0
   -3.8815   -0.7718    1.4381 C   0  0  0  0  0  0  0  0  0  0  0  0
   -4.0108   -1.9001   -0.6493 O   0  0  0  0  0  0  0  0  0  0  0  0
   -3.0858   -0.0560    2.4243 C   0  0  0  0  0  0  0  0  0  0  0  0
  1  2  1  0
  1  3  1  0
  1  4  2  0
  5  3  1  0
  5  6  1  0
  5  7  2  0
  6  8  2  0
  9  6  1  0
  8 10  1  0
 11  9  2  0
 10 12  2  0
 12 11  1  0
 12 13  1  0
  2 14  2  0
 15  2  1  0
 14 16  1  0
 17 15  2  0
 15 18  1  0
 16 19  2  0
 19 17  1  0
M  END
>  <ID>  (130) 


>  <MolWt>  (130) 
255.089543

>  <LogP>  (130) 
2.27082

>  <NumHDonors>  (130) 
2

>  <NumHAcceptors>  (130) 
3

$$$$

     RDKit          3D

 19 20  0  0  0  0  0  0  0  0999 V2000
   -1.2865   -0.6879   -0.8288 C   0  0  0  0  0  0  0  0  0  0  0  0
   -2.7403   -0.3988   -0.7913 C   0  0  0  0  0  0  0  0  0  0  0  0
   -0.4988    0.4304   -0.8746 N   0  0  0  0  0  0  0  0  0  0  0  0
   -0.8544   -1.8347   -0.8323 O   0  0  0  0  0  0  0  0  0  0  0  0
   -0.0041    0.8284    0.3324 C   0  0  0  0  0  0  0  0  0  0  0  0
    1.4516    0.5888    0.4861 C   0  0  0  0  0  0  0  0  0  0  0  0
   -0.6720    1.4057    1.1816 O   0  0  0  0  0  0  0  0  0  0  0  0
    1.8795   -0.6308    0.8645 C   0  0  0  0  0  0  0  0  0  0  0  0
    2.4057    1.6709    0.2972 C   0  0  0  0  0  0  0  0  0  0  0  0
    3.3053   -0.8876    0.9926 C   0  0  0  0  0  0  0  0  0  0  0  0
    3.7227    1.4362    0.4404 C   0  0  0  0  0  0  0  0  0  0  0  0
    4.2007    0.1002    0.7883 C   0  0  0  0  0  0  0  0  0  0  0  0
    5.6809   -0.0952    0.9021 C   0  0  0  0  0  0  0  0  0  0  0  0
   -3.4039   -0.5757    0.3686 C   0  0  0  0  0  0  0  0  0  0  0  0
   -3.4782   -0.1754   -2.0181 C   0  0  0  0  0  0  0  0  0  0  0  0
   -4.8557   -0.6856    0.3549 C   0  0  0  0  0  0  0  0  0  0  0  0
   -4.8198   -0.2353   -2.0288 C   0  0  0  0  0  0  0  0  0  0  0  0
   -2.7969    0.1323   -3.1400 F   0  0  0  0  0  0  0  0  0  0  0  0
   -5.5351   -0.5240   -0.7959 C   0  0  0  0  0  0  0  0  0  0  0  0
  1  2  1  0
  1  3  1  0
  1  4  2  0
  5  3  1  0
  5  6  1  0
  5  7  2  0
  6  8  2  0
  9  6  1  0
  8 10  1  0
 11  9  2  0
 10 12  2  0
 12 11  1  0
 12 13  1  0
  2 14  2  0
 15  2  1  0
 14 16  1  0
 17 15  2  0
 15 18  1  0
 16 19  2  0
 19 17  1  0
M  END
>  <ID>  (131) 


>  <MolWt>  (131) 
257.085207

>  <LogP>  (131) 
2.70432

>  <NumHDonors>  (131) 
1

>  <NumHAcceptors>  (131) 
2

$$$$

     RDKit          3D

 19 20  0  0  0  0  0  0  0  0999 V2000
    1.4826   -0.6364   -0.3438 C   0  0  0  0  0  0  0  0  0  0  0  0
    2.8846   -0.1450   -0.4192 C   0  0  0  0  0  0  0  0  0  0  0  0
    0.6694    0.1294    0.4479 N   0  0  0  0  0  0  0  0  0  0  0  0
    1.1393   -1.6670   -0.9107 O   0  0  0  0  0  0  0  0  0  0  0  0
   -0.2720    0.8430   -0.2353 C   0  0  0  0  0  0  0  0  0  0  0  0
   -1.6548    0.3429   -0.0431 C   0  0  0  0  0  0  0  0  0  0  0  0
   -0.0185    1.8562   -0.8762 O   0  0  0  0  0  0  0  0  0  0  0  0
   -2.4596    1.0215    0.7972 C   0  0  0  0  0  0  0  0  0  0  0  0
   -2.1258   -0.8773   -0.6774 C   0  0  0  0  0  0  0  0  0  0  0  0
   -3.7320    0.4429    1.1995 C   0  0  0  0  0  0  0  0  0  0  0  0
   -3.3233   -1.3879   -0.3381 C   0  0  0  0  0  0  0  0  0  0  0  0
   -4.1589   -0.7148    0.6538 C   0  0  0  0  0  0  0  0  0  0  0  0
   -5.4637   -1.3592    1.0066 C   0  0  0  0  0  0  0  0  0  0  0  0
    3.1747    0.8596   -1.2698 C   0  0  0  0  0  0  0  0  0  0  0  0
    3.8900   -0.6256    0.5214 C   0  0  0  0  0  0  0  0  0  0  0  0
    4.4254    1.5878   -1.1184 C   0  0  0  0  0  0  0  0  0  0  0  0
    5.0652    0.0225    0.6259 C   0  0  0  0  0  0  0  0  0  0  0  0
    5.3233    1.1795   -0.2075 C   0  0  0  0  0  0  0  0  0  0  0  0
    6.4919    1.8303   -0.0527 F   0  0  0  0  0  0  0  0  0  0  0  0
  1  2  1  0
  1  3  1  0
  1  4  2  0
  5  3  1  0
  5  6  1  0
  5  7  2  0
  6  8  2  0
  9  6  1  0
  8 10  1  0
 11  9  2  0
 10 12  2  0
 12 11  1  0
 12 13  1  0
  2 14  2  0
 15  2  1  0
 14 16  1  0
 17 15  2  0
 16 18  2  0
 18 17  1  0
 18 19  1  0
M  END
>  <ID>  (132) 


>  <MolWt>  (132) 
257.085207

>  <LogP>  (132) 
2.70432

>  <NumHDonors>  (132) 
1

>  <NumHAcceptors>  (132) 
2

$$$$

     RDKit          3D

 18 19  0  0  0  0  0  0  0  0999 V2000
   -1.1044   -1.5251   -1.4281 C   0  0  0  0  0  0  0  0  0  0  0  0
   -1.8168   -1.2943   -0.1468 C   0  0  0  0  0  0  0  0  0  0  0  0
   -0.9838   -0.3882   -2.1823 N   0  0  0  0  0  0  0  0  0  0  0  0
   -0.7439   -2.6397   -1.7811 O   0  0  0  0  0  0  0  0  0  0  0  0
    0.2804   -0.0064   -2.5349 C   0  0  0  0  0  0  0  0  0  0  0  0
    1.1518    0.4355   -1.4179 C   0  0  0  0  0  0  0  0  0  0  0  0
    0.6426    0.0485   -3.7051 O   0  0  0  0  0  0  0  0  0  0  0  0
    2.1290   -0.3972   -1.0123 C   0  0  0  0  0  0  0  0  0  0  0  0
    0.8875    1.6633   -0.6854 C   0  0  0  0  0  0  0  0  0  0  0  0
    2.7745   -0.1736    0.2712 C   0  0  0  0  0  0  0  0  0  0  0  0
    1.5249    1.8958    0.4767 C   0  0  0  0  0  0  0  0  0  0  0  0
    2.4891    0.9279    0.9962 C   0  0  0  0  0  0  0  0  0  0  0  0
    3.1218    1.2278    2.3199 C   0  0  0  0  0  0  0  0  0  0  0  0
   -1.0862   -1.0887    0.9657 C   0  0  0  0  0  0  0  0  0  0  0  0
   -3.2603   -1.1030   -0.1109 C   0  0  0  0  0  0  0  0  0  0  0  0
   -1.6818   -0.3852    2.0898 C   0  0  0  0  0  0  0  0  0  0  0  0
   -3.8273   -0.5277    0.9655 C   0  0  0  0  0  0  0  0  0  0  0  0
   -3.0002   -0.1170    2.0889 C   0  0  0  0  0  0  0  0  0  0  0  0
  1  2  1  0
  1  3  1  0
  1  4  2  0
  5  3  1  0
  5  6  1  0
  5  7  2  0
  6  8  2  0
  9  6  1  0
  8 10  1  0
 11  9  2  0
 10 12  2  0
 12 11  1  0
 12 13  1  0
  2 14  2  0
 15  2  1  0
 14 16  1  0
 17 15  2  0
 16 18  2  0
 18 17  1  0
M  END
>  <ID>  (133) 


>  <MolWt>  (133) 
239.094629

>  <LogP>  (133) 
2.56522

>  <NumHDonors>  (133) 
1

>  <NumHAcceptors>  (133) 
2

$$$$

     RDKit          3D

 20 21  0  0  0  0  0  0  0  0999 V2000
   -1.3538    0.6536   -0.1367 C   0  0  0  0  0  0  0  0  0  0  0  0
   -2.7814    0.2895   -0.0023 C   0  0  0  0  0  0  0  0  0  0  0  0
   -0.5061   -0.2442    0.4414 N   0  0  0  0  0  0  0  0  0  0  0  0
   -0.9812    1.6929   -0.6670 O   0  0  0  0  0  0  0  0  0  0  0  0
    0.1065   -1.0875   -0.4468 C   0  0  0  0  0  0  0  0  0  0  0  0
    1.5805   -0.9124   -0.5251 C   0  0  0  0  0  0  0  0  0  0  0  0
   -0.4708   -1.9501   -1.0982 O   0  0  0  0  0  0  0  0  0  0  0  0
    2.0595    0.1399   -1.2153 C   0  0  0  0  0  0  0  0  0  0  0  0
    2.4562   -1.6436    0.3775 C   0  0  0  0  0  0  0  0  0  0  0  0
    3.3331    0.7258   -0.8296 C   0  0  0  0  0  0  0  0  0  0  0  0
    3.6698   -1.1457    0.6768 C   0  0  0  0  0  0  0  0  0  0  0  0
    4.1162    0.1133    0.0826 C   0  0  0  0  0  0  0  0  0  0  0  0
    5.4450    0.6492    0.5184 C   0  0  0  0  0  0  0  0  0  0  0  0
   -3.4128   -0.2492   -1.0659 C   0  0  0  0  0  0  0  0  0  0  0  0
   -3.5493    0.7504    1.1397 C   0  0  0  0  0  0  0  0  0  0  0  0
   -4.8691   -0.2703   -1.0997 C   0  0  0  0  0  0  0  0  0  0  0  0
   -4.8914    0.7082    1.1236 C   0  0  0  0  0  0  0  0  0  0  0  0
   -2.8928    1.2084    2.2248 F   0  0  0  0  0  0  0  0  0  0  0  0
   -5.5661    0.1895   -0.0472 C   0  0  0  0  0  0  0  0  0  0  0  0
   -6.9129    0.1703   -0.0521 F   0  0  0  0  0  0  0  0  0  0  0  0
  1  2  1  0
  1  3  1  0
  1  4  2  0
  5  3  1  0
  5  6  1  0
  5  7  2  0
  6  8  2  0
  9  6  1  0
  8 10  1  0
 11  9  2  0
 10 12  2  0
 12 11  1  0
 12 13  1  0
  2 14  2  0
 15  2  1  0
 14 16  1  0
 17 15  2  0
 15 18  1  0
 16 19  2  0
 19 17  1  0
 19 20  1  0
M  END
>  <ID>  (134) 


>  <MolWt>  (134) 
275.075785

>  <LogP>  (134) 
2.84342

>  <NumHDonors>  (134) 
1

>  <NumHAcceptors>  (134) 
2

$$$$

     RDKit          3D

 18 19  0  0  0  0  0  0  0  0999 V2000
    4.8643   -1.0236    0.1165 O   0  0  0  0  0  0  0  0  0  0  0  0
    3.6420   -0.3963    0.1811 C   0  0  0  0  0  0  0  0  0  0  0  0
    5.5843   -0.5751   -1.0307 C   0  0  0  0  0  0  0  0  0  0  0  0
    2.5172   -0.9470   -0.3133 C   0  0  0  0  0  0  0  0  0  0  0  0
    3.5567    0.7251    1.1024 C   0  0  0  0  0  0  0  0  0  0  0  0
    1.2282   -0.3268   -0.0409 C   0  0  0  0  0  0  0  0  0  0  0  0
    2.3664    1.3075    1.3378 C   0  0  0  0  0  0  0  0  0  0  0  0
    1.1702    0.8169    0.6689 C   0  0  0  0  0  0  0  0  0  0  0  0
    0.1269    1.6922    0.5247 N   0  0  0  0  0  0  0  0  0  0  0  0
   -0.8358    1.8421    1.4968 C   0  0  0  0  0  0  0  0  0  0  0  0
   -2.0400    1.0031    1.2713 C   0  0  0  0  0  0  0  0  0  0  0  0
   -0.7542    2.6170    2.4419 O   0  0  0  0  0  0  0  0  0  0  0  0
   -3.0054    1.4811    0.4636 C   0  0  0  0  0  0  0  0  0  0  0  0
   -2.0949   -0.3749    1.7312 C   0  0  0  0  0  0  0  0  0  0  0  0
   -3.9161    0.5507   -0.1858 C   0  0  0  0  0  0  0  0  0  0  0  0
   -2.9887   -1.2217    1.1883 C   0  0  0  0  0  0  0  0  0  0  0  0
   -3.9157   -0.7542    0.1586 C   0  0  0  0  0  0  0  0  0  0  0  0
   -4.8363   -1.7667   -0.4499 C   0  0  0  0  0  0  0  0  0  0  0  0
  1  2  1  0
  1  3  1  0
  4  2  2  0
  2  5  1  0
  6  4  1  0
  5  7  2  0
  8  6  2  0
  7  8  1  0
  9  8  1  0
 10  9  1  0
 10 11  1  0
 10 12  2  0
 11 13  2  0
 14 11  1  0
 13 15  1  0
 16 14  2  0
 15 17  2  0
 17 16  1  0
 17 18  1  0
M  END
>  <ID>  (135) 


>  <MolWt>  (135) 
241.110279

>  <LogP>  (135) 
3.25592

>  <NumHDonors>  (135) 
1

>  <NumHAcceptors>  (135) 
2

$$$$

     RDKit          3D

 23 25  0  0  0  0  0  0  0  0999 V2000
   -2.6226   -0.0584    0.3405 C   0  0  0  0  0  0  0  0  0  0  0  0
   -3.9052   -0.6972    0.6435 C   0  0  0  0  0  0  0  0  0  0  0  0
   -2.4150    1.2286    0.7154 C   0  0  0  0  0  0  0  0  0  0  0  0
   -1.5154   -0.7682   -0.3092 C   0  0  0  0  0  0  0  0  0  0  0  0
   -1.0997    1.8473    0.5739 C   0  0  0  0  0  0  0  0  0  0  0  0
   -0.2863   -0.2210   -0.3684 C   0  0  0  0  0  0  0  0  0  0  0  0
   -0.0472    1.0937    0.2055 C   0  0  0  0  0  0  0  0  0  0  0  0
    1.2179    1.3571    0.6748 N   0  0  0  0  0  0  0  0  0  0  0  0
    2.0272    2.2466   -0.0001 C   0  0  0  0  0  0  0  0  0  0  0  0
    3.2818    1.6296   -0.4877 C   0  0  0  0  0  0  0  0  0  0  0  0
    1.7968    3.4429   -0.1285 O   0  0  0  0  0  0  0  0  0  0  0  0
    4.3881    1.7937    0.2600 C   0  0  0  0  0  0  0  0  0  0  0  0
    3.2928    0.6949   -1.6034 C   0  0  0  0  0  0  0  0  0  0  0  0
    5.4811    0.8405    0.1388 C   0  0  0  0  0  0  0  0  0  0  0  0
    4.3338   -0.1478   -1.7598 C   0  0  0  0  0  0  0  0  0  0  0  0
    5.4621   -0.1015   -0.8292 C   0  0  0  0  0  0  0  0  0  0  0  0
    6.5598   -1.1024   -1.0281 C   0  0  0  0  0  0  0  0  0  0  0  0
   -3.9789   -1.5220    1.7158 C   0  0  0  0  0  0  0  0  0  0  0  0
   -5.0957   -0.5940   -0.2151 C   0  0  0  0  0  0  0  0  0  0  0  0
   -5.1370   -2.3696    1.9407 C   0  0  0  0  0  0  0  0  0  0  0  0
   -6.1846   -1.3527    0.0154 C   0  0  0  0  0  0  0  0  0  0  0  0
   -5.0229    0.3235   -1.2399 O   0  0  0  0  0  0  0  0  0  0  0  0
   -6.1968   -2.2897    1.1235 C   0  0  0  0  0  0  0  0  0  0  0  0
  1  2  1  0
  3  1  2  0
  1  4  1  0
  5  3  1  0
  4  6  2  0
  7  5  2  0
  6  7  1  0
  8  7  1  0
  9  8  1  0
  9 10  1  0
  9 11  2  0
 10 12  2  0
 13 10  1  0
 12 14  1  0
 15 13  2  0
 14 16  2  0
 16 15  1  0
 16 17  1  0
  2 18  2  0
 19  2  1  0
 18 20  1  0
 21 19  2  0
 19 22  1  0
 20 23  2  0
 23 21  1  0
M  END
>  <ID>  (136) 


>  <MolWt>  (136) 
303.125929

>  <LogP>  (136) 
4.61992

>  <NumHDonors>  (136) 
2

>  <NumHAcceptors>  (136) 
2

$$$$

     RDKit          3D

 24 26  0  0  0  0  0  0  0  0999 V2000
   -1.9042   -0.2089    0.0930 C   0  0  0  0  0  0  0  0  0  0  0  0
   -3.2791    0.2485    0.3060 C   0  0  0  0  0  0  0  0  0  0  0  0
   -0.9719    0.6617   -0.3591 C   0  0  0  0  0  0  0  0  0  0  0  0
   -1.4858   -1.5929    0.3443 C   0  0  0  0  0  0  0  0  0  0  0  0
    0.3766    0.2126   -0.6691 C   0  0  0  0  0  0  0  0  0  0  0  0
   -0.2639   -2.0199   -0.0222 C   0  0  0  0  0  0  0  0  0  0  0  0
    0.6572   -1.1021   -0.6748 C   0  0  0  0  0  0  0  0  0  0  0  0
    1.5579   -1.6179   -1.5770 N   0  0  0  0  0  0  0  0  0  0  0  0
    2.7010   -2.2394   -1.1270 C   0  0  0  0  0  0  0  0  0  0  0  0
    3.8362   -1.3126   -0.8958 C   0  0  0  0  0  0  0  0  0  0  0  0
    2.7950   -3.4521   -0.9831 O   0  0  0  0  0  0  0  0  0  0  0  0
    4.0806   -0.8978    0.3615 C   0  0  0  0  0  0  0  0  0  0  0  0
    4.6613   -0.8397   -1.9947 C   0  0  0  0  0  0  0  0  0  0  0  0
    5.0705    0.1406    0.5957 C   0  0  0  0  0  0  0  0  0  0  0  0
    5.6055    0.0910   -1.7692 C   0  0  0  0  0  0  0  0  0  0  0  0
    5.8123    0.6200   -0.4244 C   0  0  0  0  0  0  0  0  0  0  0  0
    6.8608    1.6748   -0.2536 C   0  0  0  0  0  0  0  0  0  0  0  0
   -4.1679    0.0859   -0.7020 C   0  0  0  0  0  0  0  0  0  0  0  0
   -3.7809    0.8262    1.5655 C   0  0  0  0  0  0  0  0  0  0  0  0
   -5.5718    0.4260   -0.5403 C   0  0  0  0  0  0  0  0  0  0  0  0
   -5.0761    1.1540    1.7085 C   0  0  0  0  0  0  0  0  0  0  0  0
   -2.8940    1.0271    2.6033 O   0  0  0  0  0  0  0  0  0  0  0  0
   -6.0215    0.9421    0.6192 C   0  0  0  0  0  0  0  0  0  0  0  0
   -7.4509    1.3136    0.8614 C   0  0  0  0  0  0  0  0  0  0  0  0
  1  2  1  0
  3  1  2  0
  1  4  1  0
  5  3  1  0
  4  6  2  0
  7  5  2  0
  6  7  1  0
  8  7  1  0
  9  8  1  0
  9 10  1  0
  9 11  2  0
 10 12  2  0
 13 10  1  0
 12 14  1  0
 15 13  2  0
 14 16  2  0
 16 15  1  0
 16 17  1  0
  2 18  2  0
 19  2  1  0
 18 20  1  0
 21 19  2  0
 19 22  1  0
 20 23  2  0
 23 21  1  0
 23 24  1  0
M  END
>  <ID>  (137) 


>  <MolWt>  (137) 
317.141579

>  <LogP>  (137) 
4.92834

>  <NumHDonors>  (137) 
2

>  <NumHAcceptors>  (137) 
2

$$$$

     RDKit          3D

 22 24  0  0  0  0  0  0  0  0999 V2000
    2.4533   -0.1454   -0.3594 C   0  0  0  0  0  0  0  0  0  0  0  0
    3.7270   -0.8637   -0.3763 C   0  0  0  0  0  0  0  0  0  0  0  0
    1.3245   -0.7811   -0.7477 C   0  0  0  0  0  0  0  0  0  0  0  0
    2.3489    1.2658    0.0273 C   0  0  0  0  0  0  0  0  0  0  0  0
    0.0528   -0.0787   -0.8118 C   0  0  0  0  0  0  0  0  0  0  0  0
    1.1805    1.9257   -0.0670 C   0  0  0  0  0  0  0  0  0  0  0  0
   -0.0018    1.2417   -0.5639 C   0  0  0  0  0  0  0  0  0  0  0  0
   -1.0581    1.9980   -1.0148 N   0  0  0  0  0  0  0  0  0  0  0  0
   -1.9180    2.5877   -0.1152 C   0  0  0  0  0  0  0  0  0  0  0  0
   -3.0174    1.7009    0.3393 C   0  0  0  0  0  0  0  0  0  0  0  0
   -1.8197    3.7549    0.2436 O   0  0  0  0  0  0  0  0  0  0  0  0
   -4.1266    1.6085   -0.4182 C   0  0  0  0  0  0  0  0  0  0  0  0
   -2.8718    0.8687    1.5229 C   0  0  0  0  0  0  0  0  0  0  0  0
   -5.0701    0.5277   -0.1780 C   0  0  0  0  0  0  0  0  0  0  0  0
   -3.7760   -0.0943    1.7776 C   0  0  0  0  0  0  0  0  0  0  0  0
   -4.9107   -0.2963    0.8785 C   0  0  0  0  0  0  0  0  0  0  0  0
   -5.8480   -1.4202    1.1948 C   0  0  0  0  0  0  0  0  0  0  0  0
    4.1636   -1.4721    0.7502 C   0  0  0  0  0  0  0  0  0  0  0  0
    4.5934   -0.9058   -1.5595 C   0  0  0  0  0  0  0  0  0  0  0  0
    5.4801   -2.0850    0.8098 C   0  0  0  0  0  0  0  0  0  0  0  0
    5.8040   -1.4892   -1.5109 C   0  0  0  0  0  0  0  0  0  0  0  0
    6.2689   -2.0935   -0.2776 C   0  0  0  0  0  0  0  0  0  0  0  0
  1  2  1  0
  3  1  2  0
  1  4  1  0
  5  3  1  0
  4  6  2  0
  7  5  2  0
  6  7  1  0
  8  7  1  0
  9  8  1  0
  9 10  1  0
  9 11  2  0
 10 12  2  0
 13 10  1  0
 12 14  1  0
 15 13  2  0
 14 16  2  0
 16 15  1  0
 16 17  1  0
  2 18  2  0
 19  2  1  0
 18 20  1  0
 21 19  2  0
 20 22  2  0
 22 21  1  0
M  END
>  <ID>  (138) 


>  <MolWt>  (138) 
287.131014

>  <LogP>  (138) 
4.91432

>  <NumHDonors>  (138) 
1

>  <NumHAcceptors>  (138) 
1

$$$$

     RDKit          3D

 19 20  0  0  0  0  0  0  0  0999 V2000
   -4.3150   -0.3327   -0.9492 C   0  0  0  0  0  0  0  0  0  0  0  0
   -3.0833   -0.0480   -0.1119 C   0  0  0  0  0  0  0  0  0  0  0  0
   -4.3001    0.4389   -2.2718 C   0  0  0  0  0  0  0  0  0  0  0  0
   -5.6132   -0.0716   -0.1803 C   0  0  0  0  0  0  0  0  0  0  0  0
   -2.1472   -0.9916    0.1314 C   0  0  0  0  0  0  0  0  0  0  0  0
   -2.8341    1.3107    0.3755 C   0  0  0  0  0  0  0  0  0  0  0  0
   -0.8159   -0.6090    0.5834 C   0  0  0  0  0  0  0  0  0  0  0  0
   -1.6043    1.6609    0.7944 C   0  0  0  0  0  0  0  0  0  0  0  0
   -0.5205    0.6923    0.7589 C   0  0  0  0  0  0  0  0  0  0  0  0
    0.7330    1.1839    0.4976 N   0  0  0  0  0  0  0  0  0  0  0  0
    1.6927    1.2437    1.4866 C   0  0  0  0  0  0  0  0  0  0  0  0
    2.9511    0.5475    1.1151 C   0  0  0  0  0  0  0  0  0  0  0  0
    1.5806    1.8432    2.5498 O   0  0  0  0  0  0  0  0  0  0  0  0
    3.0228   -0.7853    1.2935 C   0  0  0  0  0  0  0  0  0  0  0  0
    3.9658    1.2258    0.3232 C   0  0  0  0  0  0  0  0  0  0  0  0
    3.8872   -1.5715    0.4258 C   0  0  0  0  0  0  0  0  0  0  0  0
    4.8286    0.5026   -0.4132 C   0  0  0  0  0  0  0  0  0  0  0  0
    4.7614   -0.9585   -0.4011 C   0  0  0  0  0  0  0  0  0  0  0  0
    5.6896   -1.7000   -1.3138 C   0  0  0  0  0  0  0  0  0  0  0  0
  1  2  1  0
  1  3  1  0
  1  4  1  0
  5  2  2  0
  2  6  1  0
  7  5  1  0
  6  8  2  0
  9  7  2  0
  8  9  1  0
 10  9  1  0
 11 10  1  0
 11 12  1  0
 11 13  2  0
 12 14  2  0
 15 12  1  0
 14 16  1  0
 17 15  2  0
 16 18  2  0
 18 17  1  0
 18 19  1  0
M  END
>  <ID>  (139) 


>  <MolWt>  (139) 
253.146664

>  <LogP>  (139) 
4.37072

>  <NumHDonors>  (139) 
1

>  <NumHAcceptors>  (139) 
1

$$$$

     RDKit          3D

 19 20  0  0  0  0  0  0  0  0999 V2000
   -1.0832   -1.5845    0.6352 N   0  0  0  0  0  0  0  0  0  0  0  0
   -1.8293   -0.4262    0.5156 C   0  0  0  0  0  0  0  0  0  0  0  0
   -0.6371   -2.2325   -0.4992 C   0  0  0  0  0  0  0  0  0  0  0  0
    0.7076   -1.7941   -0.9510 C   0  0  0  0  0  0  0  0  0  0  0  0
   -1.2574   -3.1320   -1.0508 O   0  0  0  0  0  0  0  0  0  0  0  0
    0.7526   -0.7788   -1.8373 C   0  0  0  0  0  0  0  0  0  0  0  0
    1.8964   -2.1203   -0.1711 C   0  0  0  0  0  0  0  0  0  0  0  0
    1.8211    0.2048   -1.7330 C   0  0  0  0  0  0  0  0  0  0  0  0
    2.8960   -1.2219   -0.0905 C   0  0  0  0  0  0  0  0  0  0  0  0
    2.7716    0.0458   -0.7926 C   0  0  0  0  0  0  0  0  0  0  0  0
    3.7462    0.9781   -0.5370 O   0  0  0  0  0  0  0  0  0  0  0  0
    3.2857    1.9248    0.4279 C   0  0  0  0  0  0  0  0  0  0  0  0
   -3.1034   -0.4435    0.0749 C   0  0  0  0  0  0  0  0  0  0  0  0
   -1.3085    0.7861    1.1442 C   0  0  0  0  0  0  0  0  0  0  0  0
   -3.9948    0.6855    0.3357 C   0  0  0  0  0  0  0  0  0  0  0  0
   -2.1105    1.8414    1.3541 C   0  0  0  0  0  0  0  0  0  0  0  0
    0.0176    0.8053    1.5096 O   0  0  0  0  0  0  0  0  0  0  0  0
   -5.9710    0.5977   -0.2526 I   0  0  0  0  0  0  0  0  0  0  0  0
   -3.5056    1.7827    0.9497 C   0  0  0  0  0  0  0  0  0  0  0  0
  1  2  1  0
  3  1  1  0
  3  4  1  0
  3  5  2  0
  4  6  2  0
  7  4  1  0
  6  8  1  0
  9  7  2  0
  8 10  2  0
 10  9  1  0
 11 10  1  0
 11 12  1  0
  2 13  2  0
 14  2  1  0
 13 15  1  0
 16 14  2  0
 14 17  1  0
 15 18  1  0
 15 19  2  0
 19 16  1  0
M  END
>  <ID>  (140) 


>  <MolWt>  (140) 
368.986191

>  <LogP>  (140) 
3.2577

>  <NumHDonors>  (140) 
2

>  <NumHAcceptors>  (140) 
3

$$$$

     RDKit          3D

 18 19  0  0  0  0  0  0  0  0999 V2000
   -1.2876   -1.5673    1.3520 N   0  0  0  0  0  0  0  0  0  0  0  0
   -2.2289   -0.5658    1.2397 C   0  0  0  0  0  0  0  0  0  0  0  0
   -0.7345   -2.1533    0.2321 C   0  0  0  0  0  0  0  0  0  0  0  0
    0.4669   -1.4475   -0.2844 C   0  0  0  0  0  0  0  0  0  0  0  0
   -1.1497   -3.1821   -0.2871 O   0  0  0  0  0  0  0  0  0  0  0  0
    1.6596   -1.7336    0.2730 C   0  0  0  0  0  0  0  0  0  0  0  0
    0.3408   -0.3235   -1.2013 C   0  0  0  0  0  0  0  0  0  0  0  0
    2.7326   -0.7542    0.1953 C   0  0  0  0  0  0  0  0  0  0  0  0
    1.3670    0.5354   -1.3441 C   0  0  0  0  0  0  0  0  0  0  0  0
    2.6036    0.3202   -0.6067 C   0  0  0  0  0  0  0  0  0  0  0  0
    3.4294    1.4158   -0.5055 O   0  0  0  0  0  0  0  0  0  0  0  0
    4.4792    1.3287   -1.4672 C   0  0  0  0  0  0  0  0  0  0  0  0
   -3.4445   -0.8204    0.7166 C   0  0  0  0  0  0  0  0  0  0  0  0
   -1.8386    0.8308    1.4783 C   0  0  0  0  0  0  0  0  0  0  0  0
   -4.1573    0.2313    0.0129 C   0  0  0  0  0  0  0  0  0  0  0  0
   -2.5609    1.8180    0.9104 C   0  0  0  0  0  0  0  0  0  0  0  0
   -0.3895    1.2031    2.5990 Br  0  0  0  0  0  0  0  0  0  0  0  0
   -3.7276    1.5023    0.1016 C   0  0  0  0  0  0  0  0  0  0  0  0
  1  2  1  0
  3  1  1  0
  3  4  1  0
  3  5  2  0
  4  6  2  0
  7  4  1  0
  6  8  1  0
  9  7  2  0
  8 10  2  0
 10  9  1  0
 11 10  1  0
 11 12  1  0
  2 13  2  0
 14  2  1  0
 13 15  1  0
 16 14  2  0
 14 17  1  0
 15 18  2  0
 18 16  1  0
M  END
>  <ID>  (141) 


>  <MolWt>  (141) 
305.005141

>  <LogP>  (141) 
3.71

>  <NumHDonors>  (141) 
1

>  <NumHAcceptors>  (141) 
2

$$$$

     RDKit          3D

 18 19  0  0  0  0  0  0  0  0999 V2000
   -0.6954    1.6618    0.7892 N   0  0  0  0  0  0  0  0  0  0  0  0
   -1.6803    0.8003    0.3638 C   0  0  0  0  0  0  0  0  0  0  0  0
    0.3601    1.1948    1.5369 C   0  0  0  0  0  0  0  0  0  0  0  0
    1.4453    0.5793    0.7321 C   0  0  0  0  0  0  0  0  0  0  0  0
    0.4267    1.3181    2.7536 O   0  0  0  0  0  0  0  0  0  0  0  0
    2.4211    1.3747    0.2488 C   0  0  0  0  0  0  0  0  0  0  0  0
    1.5193   -0.8657    0.5592 C   0  0  0  0  0  0  0  0  0  0  0  0
    3.5032    0.7896   -0.5283 C   0  0  0  0  0  0  0  0  0  0  0  0
    2.5648   -1.4074   -0.0923 C   0  0  0  0  0  0  0  0  0  0  0  0
    3.6220   -0.5492   -0.6028 C   0  0  0  0  0  0  0  0  0  0  0  0
    4.5892   -1.1735   -1.3548 O   0  0  0  0  0  0  0  0  0  0  0  0
    5.7440   -1.4270   -0.5583 C   0  0  0  0  0  0  0  0  0  0  0  0
   -1.9167    0.6352   -0.9496 C   0  0  0  0  0  0  0  0  0  0  0  0
   -2.6736    0.3520    1.3283 C   0  0  0  0  0  0  0  0  0  0  0  0
   -3.2447    0.2599   -1.4078 C   0  0  0  0  0  0  0  0  0  0  0  0
   -3.8802   -0.0693    0.9064 C   0  0  0  0  0  0  0  0  0  0  0  0
   -4.1982   -0.0867   -0.5190 C   0  0  0  0  0  0  0  0  0  0  0  0
   -5.5849   -0.4856   -0.9117 C   0  0  0  0  0  0  0  0  0  0  0  0
  1  2  1  0
  3  1  1  0
  3  4  1  0
  3  5  2  0
  4  6  2  0
  7  4  1  0
  6  8  1  0
  9  7  2  0
  8 10  2  0
 10  9  1  0
 11 10  1  0
 11 12  1  0
  2 13  2  0
 14  2  1  0
 13 15  1  0
 16 14  2  0
 15 17  2  0
 17 16  1  0
 17 18  1  0
M  END
>  <ID>  (142) 


>  <MolWt>  (142) 
241.110279

>  <LogP>  (142) 
3.25592

>  <NumHDonors>  (142) 
1

>  <NumHAcceptors>  (142) 
2

$$$$

     RDKit          3D

 18 19  0  0  0  0  0  0  0  0999 V2000
    1.0387    0.9159    1.7393 N   0  0  0  0  0  0  0  0  0  0  0  0
    1.9824    0.1772    1.0571 C   0  0  0  0  0  0  0  0  0  0  0  0
    0.4571    2.0258    1.1609 C   0  0  0  0  0  0  0  0  0  0  0  0
   -0.7790    1.7245    0.3929 C   0  0  0  0  0  0  0  0  0  0  0  0
    0.8726    3.1709    1.2902 O   0  0  0  0  0  0  0  0  0  0  0  0
   -0.6489    1.4341   -0.9170 C   0  0  0  0  0  0  0  0  0  0  0  0
   -2.0367    1.4486    1.0755 C   0  0  0  0  0  0  0  0  0  0  0  0
   -1.6201    0.5519   -1.5476 C   0  0  0  0  0  0  0  0  0  0  0  0
   -2.9450    0.6502    0.4841 C   0  0  0  0  0  0  0  0  0  0  0  0
   -2.6568    0.0857   -0.8255 C   0  0  0  0  0  0  0  0  0  0  0  0
   -3.6110   -0.7569   -1.3422 O   0  0  0  0  0  0  0  0  0  0  0  0
   -3.2457   -2.1160   -1.1064 C   0  0  0  0  0  0  0  0  0  0  0  0
    3.1988    0.6887    0.7834 C   0  0  0  0  0  0  0  0  0  0  0  0
    1.6242   -1.1333    0.5070 C   0  0  0  0  0  0  0  0  0  0  0  0
    4.0008    0.1179   -0.2857 C   0  0  0  0  0  0  0  0  0  0  0  0
    2.4087   -1.7039   -0.4269 C   0  0  0  0  0  0  0  0  0  0  0  0
    0.2226   -1.9578    1.0894 Cl  0  0  0  0  0  0  0  0  0  0  0  0
    3.6186   -1.0307   -0.8711 C   0  0  0  0  0  0  0  0  0  0  0  0
  1  2  1  0
  3  1  1  0
  3  4  1  0
  3  5  2  0
  4  6  2  0
  7  4  1  0
  6  8  1  0
  9  7  2  0
  8 10  2  0
 10  9  1  0
 11 10  1  0
 11 12  1  0
  2 13  2  0
 14  2  1  0
 13 15  1  0
 16 14  2  0
 14 17  1  0
 15 18  2  0
 18 16  1  0
M  END
>  <ID>  (143) 


>  <MolWt>  (143) 
261.055656

>  <LogP>  (143) 
3.6009

>  <NumHDonors>  (143) 
1

>  <NumHAcceptors>  (143) 
2

$$$$

     RDKit          3D

 19 20  0  0  0  0  0  0  0  0999 V2000
   -1.1751    1.6083    0.7312 N   0  0  0  0  0  0  0  0  0  0  0  0
   -2.2908    0.8115    0.5863 C   0  0  0  0  0  0  0  0  0  0  0  0
   -0.4341    1.9887   -0.3695 C   0  0  0  0  0  0  0  0  0  0  0  0
    0.7817    1.1636   -0.5832 C   0  0  0  0  0  0  0  0  0  0  0  0
   -0.7119    2.9309   -1.1012 O   0  0  0  0  0  0  0  0  0  0  0  0
    1.9125    1.5236    0.0547 C   0  0  0  0  0  0  0  0  0  0  0  0
    0.7181   -0.0966   -1.3098 C   0  0  0  0  0  0  0  0  0  0  0  0
    2.9744    0.5445    0.2270 C   0  0  0  0  0  0  0  0  0  0  0  0
    1.7431   -0.9649   -1.2247 C   0  0  0  0  0  0  0  0  0  0  0  0
    2.9188   -0.6270   -0.4352 C   0  0  0  0  0  0  0  0  0  0  0  0
    3.7693   -1.6725   -0.1591 O   0  0  0  0  0  0  0  0  0  0  0  0
    4.8673   -1.6647   -1.0686 C   0  0  0  0  0  0  0  0  0  0  0  0
   -3.4194    1.3015    0.0356 C   0  0  0  0  0  0  0  0  0  0  0  0
   -2.2924   -0.5517    1.1285 C   0  0  0  0  0  0  0  0  0  0  0  0
   -4.5915    0.4545   -0.1170 C   0  0  0  0  0  0  0  0  0  0  0  0
   -3.3873   -1.3262    1.0049 C   0  0  0  0  0  0  0  0  0  0  0  0
   -0.8995   -1.1543    1.9537 Cl  0  0  0  0  0  0  0  0  0  0  0  0
   -4.5719   -0.8081    0.3438 C   0  0  0  0  0  0  0  0  0  0  0  0
   -5.9404   -1.8388    0.1814 Cl  0  0  0  0  0  0  0  0  0  0  0  0
  1  2  1  0
  3  1  1  0
  3  4  1  0
  3  5  2  0
  4  6  2  0
  7  4  1  0
  6  8  1  0
  9  7  2  0
  8 10  2  0
 10  9  1  0
 11 10  1  0
 11 12  1  0
  2 13  2  0
 14  2  1  0
 13 15  1  0
 16 14  2  0
 14 17  1  0
 15 18  2  0
 18 16  1  0
 18 19  1  0
M  END
>  <ID>  (144) 


>  <MolWt>  (144) 
295.016684

>  <LogP>  (144) 
4.2543

>  <NumHDonors>  (144) 
1

>  <NumHAcceptors>  (144) 
2

$$$$

     RDKit          3D

 18 19  0  0  0  0  0  0  0  0999 V2000
    0.7579    1.9498   -0.2494 N   0  0  0  0  0  0  0  0  0  0  0  0
    1.7494    1.1998    0.3410 C   0  0  0  0  0  0  0  0  0  0  0  0
    0.3523    1.6615   -1.5341 C   0  0  0  0  0  0  0  0  0  0  0  0
   -0.7178    0.6374   -1.6161 C   0  0  0  0  0  0  0  0  0  0  0  0
    0.7906    2.2379   -2.5210 O   0  0  0  0  0  0  0  0  0  0  0  0
   -0.3591   -0.6492   -1.7883 C   0  0  0  0  0  0  0  0  0  0  0  0
   -2.1083    0.9746   -1.3425 C   0  0  0  0  0  0  0  0  0  0  0  0
   -1.3104   -1.7065   -1.4836 C   0  0  0  0  0  0  0  0  0  0  0  0
   -2.9907   -0.0049   -1.0719 C   0  0  0  0  0  0  0  0  0  0  0  0
   -2.5443   -1.3879   -1.0482 C   0  0  0  0  0  0  0  0  0  0  0  0
   -3.5119   -2.3308   -0.7986 O   0  0  0  0  0  0  0  0  0  0  0  0
   -3.5109   -2.6817    0.5844 C   0  0  0  0  0  0  0  0  0  0  0  0
    3.0548    1.4346    0.1025 C   0  0  0  0  0  0  0  0  0  0  0  0
    1.3700    0.4171    1.5100 C   0  0  0  0  0  0  0  0  0  0  0  0
    4.0342    1.2033    1.1562 C   0  0  0  0  0  0  0  0  0  0  0  0
    2.2851    0.1298    2.4547 C   0  0  0  0  0  0  0  0  0  0  0  0
    3.6576    0.5827    2.2894 C   0  0  0  0  0  0  0  0  0  0  0  0
    4.7838    0.2746    3.5559 Cl  0  0  0  0  0  0  0  0  0  0  0  0
  1  2  1  0
  3  1  1  0
  3  4  1  0
  3  5  2  0
  4  6  2  0
  7  4  1  0
  6  8  1  0
  9  7  2  0
  8 10  2  0
 10  9  1  0
 11 10  1  0
 11 12  1  0
  2 13  2  0
 14  2  1  0
 13 15  1  0
 16 14  2  0
 15 17  2  0
 17 16  1  0
 17 18  1  0
M  END
>  <ID>  (145) 


>  <MolWt>  (145) 
261.055656

>  <LogP>  (145) 
3.6009

>  <NumHDonors>  (145) 
1

>  <NumHAcceptors>  (145) 
2

$$$$

     RDKit          3D

 20 21  0  0  0  0  0  0  0  0999 V2000
   -1.0095    1.7071   -0.4633 N   0  0  0  0  0  0  0  0  0  0  0  0
   -2.1035    0.9292   -0.1303 C   0  0  0  0  0  0  0  0  0  0  0  0
   -0.3082    1.4456   -1.6234 C   0  0  0  0  0  0  0  0  0  0  0  0
    0.9080    0.6238   -1.4088 C   0  0  0  0  0  0  0  0  0  0  0  0
   -0.6189    1.8891   -2.7212 O   0  0  0  0  0  0  0  0  0  0  0  0
    2.0296    1.2694   -1.0332 C   0  0  0  0  0  0  0  0  0  0  0  0
    0.8144   -0.8197   -1.2432 C   0  0  0  0  0  0  0  0  0  0  0  0
    2.9780    0.5947   -0.1601 C   0  0  0  0  0  0  0  0  0  0  0  0
    1.7296   -1.4596   -0.4919 C   0  0  0  0  0  0  0  0  0  0  0  0
    2.8184   -0.7125    0.1237 C   0  0  0  0  0  0  0  0  0  0  0  0
    3.3361   -1.2744    1.2682 O   0  0  0  0  0  0  0  0  0  0  0  0
    4.5595   -1.9467    0.9762 C   0  0  0  0  0  0  0  0  0  0  0  0
   -3.2561    0.9953   -0.8259 C   0  0  0  0  0  0  0  0  0  0  0  0
   -2.0731    0.2220    1.1516 C   0  0  0  0  0  0  0  0  0  0  0  0
   -4.4806    0.4359   -0.2736 C   0  0  0  0  0  0  0  0  0  0  0  0
   -3.2020   -0.3176    1.6579 C   0  0  0  0  0  0  0  0  0  0  0  0
   -0.8542    0.1442    1.7933 O   0  0  0  0  0  0  0  0  0  0  0  0
   -6.0476    0.6113   -1.2675 Br  0  0  0  0  0  0  0  0  0  0  0  0
   -4.4508   -0.1943    0.9154 C   0  0  0  0  0  0  0  0  0  0  0  0
   -3.2680   -1.2369    3.2835 Br  0  0  0  0  0  0  0  0  0  0  0  0
  1  2  1  0
  3  1  1  0
  3  4  1  0
  3  5  2  0
  4  6  2  0
  7  4  1  0
  6  8  1  0
  9  7  2  0
  8 10  2  0
 10  9  1  0
 11 10  1  0
 11 12  1  0
  2 13  2  0
 14  2  1  0
 13 15  1  0
 16 14  2  0
 14 17  1  0
 15 18  1  0
 15 19  2  0
 19 16  1  0
 16 20  1  0
M  END
>  <ID>  (146) 


>  <MolWt>  (146) 
398.910567

>  <LogP>  (146) 
4.1781

>  <NumHDonors>  (146) 
2

>  <NumHAcceptors>  (146) 
3

$$$$

     RDKit          3D

 18 19  0  0  0  0  0  0  0  0999 V2000
   -1.1573    1.7315    0.4891 N   0  0  0  0  0  0  0  0  0  0  0  0
   -2.0651    0.7018    0.5703 C   0  0  0  0  0  0  0  0  0  0  0  0
   -0.5794    2.0439   -0.7214 C   0  0  0  0  0  0  0  0  0  0  0  0
    0.6666    1.2899   -1.0042 C   0  0  0  0  0  0  0  0  0  0  0  0
   -1.0183    2.9020   -1.4771 O   0  0  0  0  0  0  0  0  0  0  0  0
    1.8347    1.7943   -0.5596 C   0  0  0  0  0  0  0  0  0  0  0  0
    0.6312   -0.0089   -1.6612 C   0  0  0  0  0  0  0  0  0  0  0  0
    3.0190    0.9467   -0.5453 C   0  0  0  0  0  0  0  0  0  0  0  0
    1.7309   -0.7848   -1.6580 C   0  0  0  0  0  0  0  0  0  0  0  0
    2.9439   -0.3172   -1.0045 C   0  0  0  0  0  0  0  0  0  0  0  0
    4.0549   -1.1094   -1.1771 O   0  0  0  0  0  0  0  0  0  0  0  0
    4.2677   -1.9151   -0.0194 C   0  0  0  0  0  0  0  0  0  0  0  0
   -3.3412    0.8409    0.1640 C   0  0  0  0  0  0  0  0  0  0  0  0
   -1.6846   -0.4577    1.3612 C   0  0  0  0  0  0  0  0  0  0  0  0
   -4.3611   -0.0792    0.6429 C   0  0  0  0  0  0  0  0  0  0  0  0
   -2.6213   -1.3343    1.7691 C   0  0  0  0  0  0  0  0  0  0  0  0
   -4.0195   -1.1293    1.4141 C   0  0  0  0  0  0  0  0  0  0  0  0
   -5.2745   -2.3515    2.0490 Br  0  0  0  0  0  0  0  0  0  0  0  0
  1  2  1  0
  3  1  1  0
  3  4  1  0
  3  5  2  0
  4  6  2  0
  7  4  1  0
  6  8  1  0
  9  7  2  0
  8 10  2  0
 10  9  1  0
 11 10  1  0
 11 12  1  0
  2 13  2  0
 14  2  1  0
 13 15  1  0
 16 14  2  0
 15 17  2  0
 17 16  1  0
 17 18  1  0
M  END
>  <ID>  (147) 


>  <MolWt>  (147) 
305.005141

>  <LogP>  (147) 
3.71

>  <NumHDonors>  (147) 
1

>  <NumHAcceptors>  (147) 
2

$$$$

     RDKit          3D

 18 19  0  0  0  0  0  0  0  0999 V2000
   -1.1164   -0.6071   -1.6121 N   0  0  0  0  0  0  0  0  0  0  0  0
   -2.1766   -0.1571   -0.8487 C   0  0  0  0  0  0  0  0  0  0  0  0
   -0.3856   -1.6996   -1.1943 C   0  0  0  0  0  0  0  0  0  0  0  0
    0.8355   -1.3398   -0.4321 C   0  0  0  0  0  0  0  0  0  0  0  0
   -0.6711   -2.8573   -1.4719 O   0  0  0  0  0  0  0  0  0  0  0  0
    1.9581   -1.0939   -1.1356 C   0  0  0  0  0  0  0  0  0  0  0  0
    0.7618   -0.9701    0.9744 C   0  0  0  0  0  0  0  0  0  0  0  0
    2.9707   -0.2121   -0.5760 C   0  0  0  0  0  0  0  0  0  0  0  0
    1.7379   -0.2181    1.5156 C   0  0  0  0  0  0  0  0  0  0  0  0
    2.8746    0.1941    0.7045 C   0  0  0  0  0  0  0  0  0  0  0  0
    3.5791    1.2741    1.1842 O   0  0  0  0  0  0  0  0  0  0  0  0
    4.7621    0.8329    1.8481 C   0  0  0  0  0  0  0  0  0  0  0  0
   -3.3263   -0.8549   -0.7513 C   0  0  0  0  0  0  0  0  0  0  0  0
   -2.1557    1.2401   -0.4155 C   0  0  0  0  0  0  0  0  0  0  0  0
   -4.5570   -0.1875   -0.3569 C   0  0  0  0  0  0  0  0  0  0  0  0
   -3.2852    1.8461   -0.0143 C   0  0  0  0  0  0  0  0  0  0  0  0
   -0.9509    1.9045   -0.4333 O   0  0  0  0  0  0  0  0  0  0  0  0
   -4.5368    1.1092   -0.0005 C   0  0  0  0  0  0  0  0  0  0  0  0
  1  2  1  0
  3  1  1  0
  3  4  1  0
  3  5  2  0
  4  6  2  0
  7  4  1  0
  6  8  1  0
  9  7  2  0
  8 10  2  0
 10  9  1  0
 11 10  1  0
 11 12  1  0
  2 13  2  0
 14  2  1  0
 13 15  1  0
 16 14  2  0
 14 17  1  0
 15 18  2  0
 18 16  1  0
M  END
>  <ID>  (148) 


>  <MolWt>  (148) 
243.089543

>  <LogP>  (148) 
2.6531

>  <NumHDonors>  (148) 
2

>  <NumHAcceptors>  (148) 
3

$$$$

     RDKit          3D

 19 20  0  0  0  0  0  0  0  0999 V2000
   -0.7212   -1.0704   -1.8346 N   0  0  0  0  0  0  0  0  0  0  0  0
   -1.7078   -0.8681   -0.8932 C   0  0  0  0  0  0  0  0  0  0  0  0
   -0.1304    0.0093   -2.4580 C   0  0  0  0  0  0  0  0  0  0  0  0
    1.1217    0.4669   -1.8011 C   0  0  0  0  0  0  0  0  0  0  0  0
   -0.5528    0.5403   -3.4787 O   0  0  0  0  0  0  0  0  0  0  0  0
    2.2900   -0.0515   -2.2285 C   0  0  0  0  0  0  0  0  0  0  0  0
    1.0924    1.3656   -0.6563 C   0  0  0  0  0  0  0  0  0  0  0  0
    3.4831    0.1078   -1.4079 C   0  0  0  0  0  0  0  0  0  0  0  0
    2.1999    1.5226    0.0920 C   0  0  0  0  0  0  0  0  0  0  0  0
    3.4136    0.7981   -0.2533 C   0  0  0  0  0  0  0  0  0  0  0  0
    4.5268    1.1137    0.4900 O   0  0  0  0  0  0  0  0  0  0  0  0
    4.7438    0.1233    1.4929 C   0  0  0  0  0  0  0  0  0  0  0  0
   -2.9176   -0.3739   -1.2125 C   0  0  0  0  0  0  0  0  0  0  0  0
   -1.4308   -1.2471    0.4888 C   0  0  0  0  0  0  0  0  0  0  0  0
   -3.8608   -0.0283   -0.1615 C   0  0  0  0  0  0  0  0  0  0  0  0
   -2.3233   -0.9751    1.4593 C   0  0  0  0  0  0  0  0  0  0  0  0
   -0.2327   -1.8915    0.7026 O   0  0  0  0  0  0  0  0  0  0  0  0
   -3.5842   -0.3115    1.1282 C   0  0  0  0  0  0  0  0  0  0  0  0
   -4.5120    0.0143    2.2575 C   0  0  0  0  0  0  0  0  0  0  0  0
  1  2  1  0
  3  1  1  0
  3  4  1  0
  3  5  2  0
  4  6  2  0
  7  4  1  0
  6  8  1  0
  9  7  2  0
  8 10  2  0
 10  9  1  0
 11 10  1  0
 11 12  1  0
  2 13  2  0
 14  2  1  0
 13 15  1  0
 16 14  2  0
 14 17  1  0
 15 18  2  0
 18 16  1  0
 18 19  1  0
M  END
>  <ID>  (149) 


>  <MolWt>  (149) 
257.105193

>  <LogP>  (149) 
2.96152

>  <NumHDonors>  (149) 
2

>  <NumHAcceptors>  (149) 
3

$$$$

     RDKit          3D

 18 19  0  0  0  0  0  0  0  0999 V2000
    1.3350    1.4632   -0.6410 N   0  0  0  0  0  0  0  0  0  0  0  0
    2.4313    0.6495   -0.4603 C   0  0  0  0  0  0  0  0  0  0  0  0
    0.5496    1.8148    0.4381 C   0  0  0  0  0  0  0  0  0  0  0  0
   -0.7505    1.0979    0.4826 C   0  0  0  0  0  0  0  0  0  0  0  0
    0.8484    2.6600    1.2733 O   0  0  0  0  0  0  0  0  0  0  0  0
   -1.8084    1.6728   -0.1223 C   0  0  0  0  0  0  0  0  0  0  0  0
   -0.8516   -0.2565    1.0052 C   0  0  0  0  0  0  0  0  0  0  0  0
   -2.9618    0.8563   -0.4682 C   0  0  0  0  0  0  0  0  0  0  0  0
   -1.9535   -0.9864    0.7507 C   0  0  0  0  0  0  0  0  0  0  0  0
   -3.0458   -0.4113   -0.0211 C   0  0  0  0  0  0  0  0  0  0  0  0
   -3.9407   -1.3168   -0.5427 O   0  0  0  0  0  0  0  0  0  0  0  0
   -5.1134   -1.3696    0.2678 C   0  0  0  0  0  0  0  0  0  0  0  0
    3.5902    1.1236    0.0371 C   0  0  0  0  0  0  0  0  0  0  0  0
    2.3837   -0.7135   -0.9721 C   0  0  0  0  0  0  0  0  0  0  0  0
    4.7650    0.2667    0.0970 C   0  0  0  0  0  0  0  0  0  0  0  0
    3.4676   -1.5050   -0.9281 C   0  0  0  0  0  0  0  0  0  0  0  0
    1.2312   -1.1646   -1.5089 F   0  0  0  0  0  0  0  0  0  0  0  0
    4.7062   -0.9963   -0.3635 C   0  0  0  0  0  0  0  0  0  0  0  0
  1  2  1  0
  3  1  1  0
  3  4  1  0
  3  5  2  0
  4  6  2  0
  7  4  1  0
  6  8  1  0
  9  7  2  0
  8 10  2  0
 10  9  1  0
 11 10  1  0
 11 12  1  0
  2 13  2  0
 14  2  1  0
 13 15  1  0
 16 14  2  0
 14 17  1  0
 15 18  2  0
 18 16  1  0
M  END
>  <ID>  (150) 


>  <MolWt>  (150) 
245.085207

>  <LogP>  (150) 
3.0866

>  <NumHDonors>  (150) 
1

>  <NumHAcceptors>  (150) 
2

$$$$

     RDKit          3D

 18 19  0  0  0  0  0  0  0  0999 V2000
   -1.2293   -1.1809    1.1968 N   0  0  0  0  0  0  0  0  0  0  0  0
   -2.0592   -0.1409    0.8459 C   0  0  0  0  0  0  0  0  0  0  0  0
   -0.7615   -2.0506    0.2367 C   0  0  0  0  0  0  0  0  0  0  0  0
    0.5228   -1.6303   -0.3730 C   0  0  0  0  0  0  0  0  0  0  0  0
   -1.3188   -3.1002   -0.0534 O   0  0  0  0  0  0  0  0  0  0  0  0
    1.6696   -1.9743    0.2454 C   0  0  0  0  0  0  0  0  0  0  0  0
    0.5507   -0.7245   -1.5148 C   0  0  0  0  0  0  0  0  0  0  0  0
    2.9075   -1.3000   -0.1104 C   0  0  0  0  0  0  0  0  0  0  0  0
    1.6962   -0.0991   -1.8448 C   0  0  0  0  0  0  0  0  0  0  0  0
    2.9063   -0.3539   -1.0759 C   0  0  0  0  0  0  0  0  0  0  0  0
    4.0629    0.1839   -1.5941 O   0  0  0  0  0  0  0  0  0  0  0  0
    4.4579    1.3268   -0.8347 C   0  0  0  0  0  0  0  0  0  0  0  0
   -3.3211   -0.3482    0.4107 C   0  0  0  0  0  0  0  0  0  0  0  0
   -1.6625    1.1866    1.2962 C   0  0  0  0  0  0  0  0  0  0  0  0
   -4.3109    0.7131    0.5187 C   0  0  0  0  0  0  0  0  0  0  0  0
   -2.5738    2.1752    1.3730 C   0  0  0  0  0  0  0  0  0  0  0  0
   -3.9433    1.9181    0.9824 C   0  0  0  0  0  0  0  0  0  0  0  0
   -4.8412    2.9182    1.0925 F   0  0  0  0  0  0  0  0  0  0  0  0
  1  2  1  0
  3  1  1  0
  3  4  1  0
  3  5  2  0
  4  6  2  0
  7  4  1  0
  6  8  1  0
  9  7  2  0
  8 10  2  0
 10  9  1  0
 11 10  1  0
 11 12  1  0
  2 13  2  0
 14  2  1  0
 13 15  1  0
 16 14  2  0
 15 17  2  0
 17 16  1  0
 17 18  1  0
M  END
>  <ID>  (151) 


>  <MolWt>  (151) 
245.085207

>  <LogP>  (151) 
3.0866

>  <NumHDonors>  (151) 
1

>  <NumHAcceptors>  (151) 
2

$$$$

     RDKit          3D

 17 18  0  0  0  0  0  0  0  0999 V2000
   -1.3579    0.1905   -1.6696 N   0  0  0  0  0  0  0  0  0  0  0  0
   -2.3121    0.1361   -0.6874 C   0  0  0  0  0  0  0  0  0  0  0  0
   -0.4546    1.2271   -1.7397 C   0  0  0  0  0  0  0  0  0  0  0  0
    0.8324    0.9395   -1.0549 C   0  0  0  0  0  0  0  0  0  0  0  0
   -0.6425    2.2746   -2.3460 O   0  0  0  0  0  0  0  0  0  0  0  0
    0.9498    1.2730    0.2451 C   0  0  0  0  0  0  0  0  0  0  0  0
    1.8555    0.1225   -1.6924 C   0  0  0  0  0  0  0  0  0  0  0  0
    1.9157    0.5700    1.0749 C   0  0  0  0  0  0  0  0  0  0  0  0
    2.8010   -0.4648   -0.9353 C   0  0  0  0  0  0  0  0  0  0  0  0
    2.8094   -0.2626    0.5073 C   0  0  0  0  0  0  0  0  0  0  0  0
    3.4733   -1.2278    1.2296 O   0  0  0  0  0  0  0  0  0  0  0  0
    4.7604   -0.7492    1.6165 C   0  0  0  0  0  0  0  0  0  0  0  0
   -3.5151    0.7160   -0.8559 C   0  0  0  0  0  0  0  0  0  0  0  0
   -2.1115   -0.7987    0.4120 C   0  0  0  0  0  0  0  0  0  0  0  0
   -4.6436    0.3055   -0.0372 C   0  0  0  0  0  0  0  0  0  0  0  0
   -3.1482   -1.1498    1.1949 C   0  0  0  0  0  0  0  0  0  0  0  0
   -4.4666   -0.5915    0.9488 C   0  0  0  0  0  0  0  0  0  0  0  0
  1  2  1  0
  3  1  1  0
  3  4  1  0
  3  5  2  0
  4  6  2  0
  7  4  1  0
  6  8  1  0
  9  7  2  0
  8 10  2  0
 10  9  1  0
 11 10  1  0
 11 12  1  0
  2 13  2  0
 14  2  1  0
 13 15  1  0
 16 14  2  0
 15 17  2  0
 17 16  1  0
M  END
>  <ID>  (152) 


>  <MolWt>  (152) 
227.094629

>  <LogP>  (152) 
2.9475

>  <NumHDonors>  (152) 
1

>  <NumHAcceptors>  (152) 
2

$$$$

     RDKit          3D

 19 20  0  0  0  0  0  0  0  0999 V2000
   -1.0757    1.6152    0.4955 N   0  0  0  0  0  0  0  0  0  0  0  0
   -2.3072    1.0702    0.2091 C   0  0  0  0  0  0  0  0  0  0  0  0
   -0.3675    1.1790    1.5979 C   0  0  0  0  0  0  0  0  0  0  0  0
    0.8584    0.4167    1.2485 C   0  0  0  0  0  0  0  0  0  0  0  0
   -0.6723    1.4105    2.7616 O   0  0  0  0  0  0  0  0  0  0  0  0
    2.0071    1.1066    1.1079 C   0  0  0  0  0  0  0  0  0  0  0  0
    0.7927   -0.9830    0.8561 C   0  0  0  0  0  0  0  0  0  0  0  0
    3.0925    0.5315    0.3281 C   0  0  0  0  0  0  0  0  0  0  0  0
    1.8284   -1.5379    0.1995 C   0  0  0  0  0  0  0  0  0  0  0  0
    3.0151   -0.7461   -0.0913 C   0  0  0  0  0  0  0  0  0  0  0  0
    3.8227   -1.2402   -1.0898 O   0  0  0  0  0  0  0  0  0  0  0  0
    4.9431   -1.9179   -0.5237 C   0  0  0  0  0  0  0  0  0  0  0  0
   -3.4212    1.4675    0.8566 C   0  0  0  0  0  0  0  0  0  0  0  0
   -2.4298    0.1803   -0.9402 C   0  0  0  0  0  0  0  0  0  0  0  0
   -4.7269    0.9994    0.4144 C   0  0  0  0  0  0  0  0  0  0  0  0
   -3.6315   -0.2530   -1.3526 C   0  0  0  0  0  0  0  0  0  0  0  0
   -1.3103   -0.1892   -1.5958 F   0  0  0  0  0  0  0  0  0  0  0  0
   -4.8160    0.1739   -0.6411 C   0  0  0  0  0  0  0  0  0  0  0  0
   -6.0129   -0.2756   -1.0649 F   0  0  0  0  0  0  0  0  0  0  0  0
  1  2  1  0
  3  1  1  0
  3  4  1  0
  3  5  2  0
  4  6  2  0
  7  4  1  0
  6  8  1  0
  9  7  2  0
  8 10  2  0
 10  9  1  0
 11 10  1  0
 11 12  1  0
  2 13  2  0
 14  2  1  0
 13 15  1  0
 16 14  2  0
 14 17  1  0
 15 18  2  0
 18 16  1  0
 18 19  1  0
M  END
>  <ID>  (153) 


>  <MolWt>  (153) 
263.075785

>  <LogP>  (153) 
3.2257

>  <NumHDonors>  (153) 
1

>  <NumHAcceptors>  (153) 
2

$$$$

     RDKit          3D

 20 21  0  0  0  0  0  0  0  0999 V2000
    1.7191   -0.3485   -2.0999 N   0  0  0  0  0  0  0  0  0  0  0  0
    2.6202    0.0610   -1.1396 C   0  0  0  0  0  0  0  0  0  0  0  0
    1.1012   -1.5776   -1.9865 C   0  0  0  0  0  0  0  0  0  0  0  0
   -0.2034   -1.5311   -1.2760 C   0  0  0  0  0  0  0  0  0  0  0  0
    1.5431   -2.6216   -2.4521 O   0  0  0  0  0  0  0  0  0  0  0  0
   -0.2070   -1.7190    0.0575 C   0  0  0  0  0  0  0  0  0  0  0  0
   -1.4067   -1.0573   -1.9409 C   0  0  0  0  0  0  0  0  0  0  0  0
   -1.3020   -1.1766    0.8476 C   0  0  0  0  0  0  0  0  0  0  0  0
   -2.4059   -0.5372   -1.2043 C   0  0  0  0  0  0  0  0  0  0  0  0
   -2.2713   -0.4468    0.2518 C   0  0  0  0  0  0  0  0  0  0  0  0
   -3.1393    0.5613    0.9785 C   0  0  0  0  0  0  0  0  0  0  0  0
   -4.1083   -0.1262    1.9438 C   0  0  0  0  0  0  0  0  0  0  0  0
   -2.3010    1.6138    1.7109 C   0  0  0  0  0  0  0  0  0  0  0  0
    3.8160   -0.5348   -0.9740 C   0  0  0  0  0  0  0  0  0  0  0  0
    2.2422    1.1744   -0.2754 C   0  0  0  0  0  0  0  0  0  0  0  0
    4.6409   -0.2140    0.1877 C   0  0  0  0  0  0  0  0  0  0  0  0
    3.0174    1.5095    0.7714 C   0  0  0  0  0  0  0  0  0  0  0  0
    1.0812    1.8286   -0.6172 O   0  0  0  0  0  0  0  0  0  0  0  0
    6.3923   -1.2493    0.5305 I   0  0  0  0  0  0  0  0  0  0  0  0
    4.2455    0.7692    1.0237 C   0  0  0  0  0  0  0  0  0  0  0  0
  1  2  1  0
  3  1  1  0
  3  4  1  0
  3  5  2  0
  4  6  2  0
  7  4  1  0
  6  8  1  0
  9  7  2  0
  8 10  2  0
 10  9  1  0
 11 10  1  0
 11 12  1  0
 11 13  1  0
  2 14  2  0
 15  2  1  0
 14 16  1  0
 17 15  2  0
 15 18  1  0
 16 19  1  0
 16 20  2  0
 20 17  1  0
M  END
>  <ID>  (154) 


>  <MolWt>  (154) 
381.022577

>  <LogP>  (154) 
4.3725

>  <NumHDonors>  (154) 
2

>  <NumHAcceptors>  (154) 
2

$$$$

     RDKit          3D

 19 20  0  0  0  0  0  0  0  0999 V2000
    1.6094    1.5968   -1.6308 N   0  0  0  0  0  0  0  0  0  0  0  0
    2.7337    1.1237   -0.9881 C   0  0  0  0  0  0  0  0  0  0  0  0
    0.8592    0.7728   -2.4437 C   0  0  0  0  0  0  0  0  0  0  0  0
   -0.2716    0.1127   -1.7443 C   0  0  0  0  0  0  0  0  0  0  0  0
    1.0572    0.6158   -3.6424 O   0  0  0  0  0  0  0  0  0  0  0  0
   -1.4368    0.7818   -1.6537 C   0  0  0  0  0  0  0  0  0  0  0  0
   -0.0892   -1.1303   -1.0143 C   0  0  0  0  0  0  0  0  0  0  0  0
   -2.3885    0.4127   -0.6156 C   0  0  0  0  0  0  0  0  0  0  0  0
   -0.9773   -1.4773   -0.0653 C   0  0  0  0  0  0  0  0  0  0  0  0
   -2.1190   -0.6074    0.2302 C   0  0  0  0  0  0  0  0  0  0  0  0
   -2.8836   -0.8640    1.5162 C   0  0  0  0  0  0  0  0  0  0  0  0
   -4.3365   -1.2596    1.2383 C   0  0  0  0  0  0  0  0  0  0  0  0
   -2.8203    0.3356    2.4650 C   0  0  0  0  0  0  0  0  0  0  0  0
    3.8233    0.7552   -1.6909 C   0  0  0  0  0  0  0  0  0  0  0  0
    2.7304    0.9525    0.4726 C   0  0  0  0  0  0  0  0  0  0  0  0
    4.8504   -0.0600   -1.0667 C   0  0  0  0  0  0  0  0  0  0  0  0
    3.7292    0.2574    1.0560 C   0  0  0  0  0  0  0  0  0  0  0  0
    1.3777    1.7397    1.4976 Br  0  0  0  0  0  0  0  0  0  0  0  0
    4.8040   -0.3028    0.2550 C   0  0  0  0  0  0  0  0  0  0  0  0
  1  2  1  0
  3  1  1  0
  3  4  1  0
  3  5  2  0
  4  6  2  0
  7  4  1  0
  6  8  1  0
  9  7  2  0
  8 10  2  0
 10  9  1  0
 11 10  1  0
 11 12  1  0
 11 13  1  0
  2 14  2  0
 15  2  1  0
 14 16  1  0
 17 15  2  0
 15 18  1  0
 16 19  2  0
 19 17  1  0
M  END
>  <ID>  (155) 


>  <MolWt>  (155) 
317.041526

>  <LogP>  (155) 
4.8248

>  <NumHDonors>  (155) 
1

>  <NumHAcceptors>  (155) 
1

$$$$

     RDKit          3D

 19 20  0  0  0  0  0  0  0  0999 V2000
   -0.9797   -0.0547   -2.0655 N   0  0  0  0  0  0  0  0  0  0  0  0
   -2.0435   -0.1050   -1.2021 C   0  0  0  0  0  0  0  0  0  0  0  0
   -0.3330    1.1303   -2.3382 C   0  0  0  0  0  0  0  0  0  0  0  0
    0.8514    1.3723   -1.4757 C   0  0  0  0  0  0  0  0  0  0  0  0
   -0.6516    1.9086   -3.2289 O   0  0  0  0  0  0  0  0  0  0  0  0
    2.0109    0.7753   -1.8111 C   0  0  0  0  0  0  0  0  0  0  0  0
    0.7185    2.0074   -0.1747 C   0  0  0  0  0  0  0  0  0  0  0  0
    2.9830    0.4821   -0.7669 C   0  0  0  0  0  0  0  0  0  0  0  0
    1.6178    1.7314    0.7876 C   0  0  0  0  0  0  0  0  0  0  0  0
    2.7098    0.7923    0.5205 C   0  0  0  0  0  0  0  0  0  0  0  0
    3.3570    0.1121    1.7114 C   0  0  0  0  0  0  0  0  0  0  0  0
    3.1001   -1.3977    1.7090 C   0  0  0  0  0  0  0  0  0  0  0  0
    4.8578    0.4055    1.7863 C   0  0  0  0  0  0  0  0  0  0  0  0
   -1.9223   -0.6170    0.0369 C   0  0  0  0  0  0  0  0  0  0  0  0
   -3.3681    0.1037   -1.7636 C   0  0  0  0  0  0  0  0  0  0  0  0
   -3.0965   -1.1055    0.7425 C   0  0  0  0  0  0  0  0  0  0  0  0
   -4.4600   -0.3096   -1.0948 C   0  0  0  0  0  0  0  0  0  0  0  0
   -4.3251   -0.9610    0.2052 C   0  0  0  0  0  0  0  0  0  0  0  0
   -5.5797   -1.4283    0.8762 C   0  0  0  0  0  0  0  0  0  0  0  0
  1  2  1  0
  3  1  1  0
  3  4  1  0
  3  5  2  0
  4  6  2  0
  7  4  1  0
  6  8  1  0
  9  7  2  0
  8 10  2  0
 10  9  1  0
 11 10  1  0
 11 12  1  0
 11 13  1  0
  2 14  2  0
 15  2  1  0
 14 16  1  0
 17 15  2  0
 16 18  2  0
 18 17  1  0
 18 19  1  0
M  END
>  <ID>  (156) 


>  <MolWt>  (156) 
253.146664

>  <LogP>  (156) 
4.37072

>  <NumHDonors>  (156) 
1

>  <NumHAcceptors>  (156) 
1

$$$$

     RDKit          3D

 19 20  0  0  0  0  0  0  0  0999 V2000
    1.6790    2.2067   -0.1397 N   0  0  0  0  0  0  0  0  0  0  0  0
    2.7250    1.3135   -0.2366 C   0  0  0  0  0  0  0  0  0  0  0  0
    0.9674    2.3292    1.0371 C   0  0  0  0  0  0  0  0  0  0  0  0
   -0.2827    1.5288    1.0652 C   0  0  0  0  0  0  0  0  0  0  0  0
    1.2938    3.0483    1.9743 O   0  0  0  0  0  0  0  0  0  0  0  0
   -1.3894    2.0590    0.5139 C   0  0  0  0  0  0  0  0  0  0  0  0
   -0.2771    0.1369    1.4793 C   0  0  0  0  0  0  0  0  0  0  0  0
   -2.4608    1.1747    0.0779 C   0  0  0  0  0  0  0  0  0  0  0  0
   -1.2719   -0.6768    1.0814 C   0  0  0  0  0  0  0  0  0  0  0  0
   -2.3513   -0.1623    0.2368 C   0  0  0  0  0  0  0  0  0  0  0  0
   -3.2709   -1.1338   -0.4762 C   0  0  0  0  0  0  0  0  0  0  0  0
   -4.1523   -1.9096    0.5066 C   0  0  0  0  0  0  0  0  0  0  0  0
   -2.5077   -2.0920   -1.3969 C   0  0  0  0  0  0  0  0  0  0  0  0
    3.8892    1.5370    0.4051 C   0  0  0  0  0  0  0  0  0  0  0  0
    2.6008    0.1338   -1.0987 C   0  0  0  0  0  0  0  0  0  0  0  0
    4.9463    0.5406    0.3781 C   0  0  0  0  0  0  0  0  0  0  0  0
    3.6007   -0.7670   -1.1541 C   0  0  0  0  0  0  0  0  0  0  0  0
    1.1928   -0.0789   -2.0721 Cl  0  0  0  0  0  0  0  0  0  0  0  0
    4.8066   -0.5695   -0.3676 C   0  0  0  0  0  0  0  0  0  0  0  0
  1  2  1  0
  3  1  1  0
  3  4  1  0
  3  5  2  0
  4  6  2  0
  7  4  1  0
  6  8  1  0
  9  7  2  0
  8 10  2  0
 10  9  1  0
 11 10  1  0
 11 12  1  0
 11 13  1  0
  2 14  2  0
 15  2  1  0
 14 16  1  0
 17 15  2  0
 15 18  1  0
 16 19  2  0
 19 17  1  0
M  END
>  <ID>  (157) 


>  <MolWt>  (157) 
273.092042

>  <LogP>  (157) 
4.7157

>  <NumHDonors>  (157) 
1

>  <NumHAcceptors>  (157) 
1

$$$$

     RDKit          3D

 19 20  0  0  0  0  0  0  0  0999 V2000
   -1.7072   -1.0485   -0.9018 N   0  0  0  0  0  0  0  0  0  0  0  0
   -2.7887   -0.5490   -0.2081 C   0  0  0  0  0  0  0  0  0  0  0  0
   -1.2157   -0.3731   -1.9945 C   0  0  0  0  0  0  0  0  0  0  0  0
    0.0750    0.3045   -1.7385 C   0  0  0  0  0  0  0  0  0  0  0  0
   -1.7372   -0.3928   -3.1025 O   0  0  0  0  0  0  0  0  0  0  0  0
    1.1978   -0.3686   -2.0574 C   0  0  0  0  0  0  0  0  0  0  0  0
    0.1634    1.4855   -0.8897 C   0  0  0  0  0  0  0  0  0  0  0  0
    2.4149   -0.1076   -1.3034 C   0  0  0  0  0  0  0  0  0  0  0  0
    1.2735    1.6732   -0.1525 C   0  0  0  0  0  0  0  0  0  0  0  0
    2.3687    0.7029   -0.2241 C   0  0  0  0  0  0  0  0  0  0  0  0
    3.2734    0.5652    0.9868 C   0  0  0  0  0  0  0  0  0  0  0  0
    3.3720   -0.8851    1.4733 C   0  0  0  0  0  0  0  0  0  0  0  0
    4.6660    1.1277    0.6972 C   0  0  0  0  0  0  0  0  0  0  0  0
   -2.6536   -0.1780    1.0802 C   0  0  0  0  0  0  0  0  0  0  0  0
   -4.1205   -0.8074   -0.7454 C   0  0  0  0  0  0  0  0  0  0  0  0
   -3.8124   -0.1874    1.9675 C   0  0  0  0  0  0  0  0  0  0  0  0
   -5.1944   -0.7931    0.0665 C   0  0  0  0  0  0  0  0  0  0  0  0
   -5.0314   -0.4838    1.4787 C   0  0  0  0  0  0  0  0  0  0  0  0
   -6.4263   -0.4896    2.4879 Cl  0  0  0  0  0  0  0  0  0  0  0  0
  1  2  1  0
  3  1  1  0
  3  4  1  0
  3  5  2  0
  4  6  2  0
  7  4  1  0
  6  8  1  0
  9  7  2  0
  8 10  2  0
 10  9  1  0
 11 10  1  0
 11 12  1  0
 11 13  1  0
  2 14  2  0
 15  2  1  0
 14 16  1  0
 17 15  2  0
 16 18  2  0
 18 17  1  0
 18 19  1  0
M  END
>  <ID>  (158) 


>  <MolWt>  (158) 
273.092042

>  <LogP>  (158) 
4.7157

>  <NumHDonors>  (158) 
1

>  <NumHAcceptors>  (158) 
1

$$$$

     RDKit          3D

 19 20  0  0  0  0  0  0  0  0999 V2000
    2.2478   -1.2014   -1.3401 N   0  0  0  0  0  0  0  0  0  0  0  0
    2.9956   -0.7110   -0.2961 C   0  0  0  0  0  0  0  0  0  0  0  0
    1.5251   -0.3357   -2.1306 C   0  0  0  0  0  0  0  0  0  0  0  0
    0.1404   -0.1065   -1.6509 C   0  0  0  0  0  0  0  0  0  0  0  0
    1.9584    0.1605   -3.1625 O   0  0  0  0  0  0  0  0  0  0  0  0
   -0.0982    0.9620   -0.8680 C   0  0  0  0  0  0  0  0  0  0  0  0
   -0.9210   -1.0636   -1.9156 C   0  0  0  0  0  0  0  0  0  0  0  0
   -1.3314    1.0206   -0.0996 C   0  0  0  0  0  0  0  0  0  0  0  0
   -2.1138   -0.9279   -1.3054 C   0  0  0  0  0  0  0  0  0  0  0  0
   -2.3604    0.1963   -0.3981 C   0  0  0  0  0  0  0  0  0  0  0  0
   -3.7798    0.4018    0.0974 C   0  0  0  0  0  0  0  0  0  0  0  0
   -4.3125    1.7979   -0.2435 C   0  0  0  0  0  0  0  0  0  0  0  0
   -3.8886    0.1320    1.6005 C   0  0  0  0  0  0  0  0  0  0  0  0
    4.2096   -0.1592   -0.4868 C   0  0  0  0  0  0  0  0  0  0  0  0
    2.5575   -1.0410    1.0509 C   0  0  0  0  0  0  0  0  0  0  0  0
    5.1438   -0.0610    0.6248 C   0  0  0  0  0  0  0  0  0  0  0  0
    3.4042   -0.9034    2.0893 C   0  0  0  0  0  0  0  0  0  0  0  0
    4.7617   -0.4170    1.8680 C   0  0  0  0  0  0  0  0  0  0  0  0
    5.9097   -0.3066    3.3339 Br  0  0  0  0  0  0  0  0  0  0  0  0
  1  2  1  0
  3  1  1  0
  3  4  1  0
  3  5  2  0
  4  6  2  0
  7  4  1  0
  6  8  1  0
  9  7  2  0
  8 10  2  0
 10  9  1  0
 11 10  1  0
 11 12  1  0
 11 13  1  0
  2 14  2  0
 15  2  1  0
 14 16  1  0
 17 15  2  0
 16 18  2  0
 18 17  1  0
 18 19  1  0
M  END
>  <ID>  (159) 


>  <MolWt>  (159) 
317.041526

>  <LogP>  (159) 
4.8248

>  <NumHDonors>  (159) 
1

>  <NumHAcceptors>  (159) 
1

$$$$

     RDKit          3D

 19 20  0  0  0  0  0  0  0  0999 V2000
    1.7987   -0.6238   -2.1143 N   0  0  0  0  0  0  0  0  0  0  0  0
    2.6904   -0.1383   -1.1813 C   0  0  0  0  0  0  0  0  0  0  0  0
    1.1459   -1.8188   -1.8902 C   0  0  0  0  0  0  0  0  0  0  0  0
   -0.1482   -1.6723   -1.1745 C   0  0  0  0  0  0  0  0  0  0  0  0
    1.5529   -2.9133   -2.2632 O   0  0  0  0  0  0  0  0  0  0  0  0
   -1.2505   -1.4088   -1.9017 C   0  0  0  0  0  0  0  0  0  0  0  0
   -0.2011   -1.5855    0.2756 C   0  0  0  0  0  0  0  0  0  0  0  0
   -2.3883   -0.7691   -1.2568 C   0  0  0  0  0  0  0  0  0  0  0  0
   -1.2475   -0.9779    0.8638 C   0  0  0  0  0  0  0  0  0  0  0  0
   -2.3182   -0.4065    0.0431 C   0  0  0  0  0  0  0  0  0  0  0  0
   -3.2178    0.6643    0.6282 C   0  0  0  0  0  0  0  0  0  0  0  0
   -2.4266    1.8881    1.0998 C   0  0  0  0  0  0  0  0  0  0  0  0
   -4.1004    0.1176    1.7532 C   0  0  0  0  0  0  0  0  0  0  0  0
    3.8573   -0.7523   -0.9106 C   0  0  0  0  0  0  0  0  0  0  0  0
    2.3364    1.0828   -0.4615 C   0  0  0  0  0  0  0  0  0  0  0  0
    4.6493   -0.3280    0.2326 C   0  0  0  0  0  0  0  0  0  0  0  0
    3.0968    1.5082    0.5648 C   0  0  0  0  0  0  0  0  0  0  0  0
    1.2119    1.7364   -0.9123 O   0  0  0  0  0  0  0  0  0  0  0  0
    4.2835    0.7552    0.9417 C   0  0  0  0  0  0  0  0  0  0  0  0
  1  2  1  0
  3  1  1  0
  3  4  1  0
  3  5  2  0
  4  6  2  0
  7  4  1  0
  6  8  1  0
  9  7  2  0
  8 10  2  0
 10  9  1  0
 11 10  1  0
 11 12  1  0
 11 13  1  0
  2 14  2  0
 15  2  1  0
 14 16  1  0
 17 15  2  0
 15 18  1  0
 16 19  2  0
 19 17  1  0
M  END
>  <ID>  (160) 


>  <MolWt>  (160) 
255.125929

>  <LogP>  (160) 
3.7679

>  <NumHDonors>  (160) 
2

>  <NumHAcceptors>  (160) 
2

$$$$

     RDKit          3D

 20 21  0  0  0  0  0  0  0  0999 V2000
    1.1046   -0.4528   -2.0932 N   0  0  0  0  0  0  0  0  0  0  0  0
    2.0856   -0.2330   -1.1455 C   0  0  0  0  0  0  0  0  0  0  0  0
    0.4867   -1.6837   -2.1712 C   0  0  0  0  0  0  0  0  0  0  0  0
   -0.7566   -1.7786   -1.3670 C   0  0  0  0  0  0  0  0  0  0  0  0
    0.8844   -2.6008   -2.8784 O   0  0  0  0  0  0  0  0  0  0  0  0
   -1.8779   -1.2546   -1.8984 C   0  0  0  0  0  0  0  0  0  0  0  0
   -0.6998   -2.0468    0.0616 C   0  0  0  0  0  0  0  0  0  0  0  0
   -2.8588   -0.6387   -1.0162 C   0  0  0  0  0  0  0  0  0  0  0  0
   -1.6115   -1.4831    0.8749 C   0  0  0  0  0  0  0  0  0  0  0  0
   -2.6507   -0.6129    0.3192 C   0  0  0  0  0  0  0  0  0  0  0  0
   -3.3667    0.3254    1.2723 C   0  0  0  0  0  0  0  0  0  0  0  0
   -3.2444    1.7901    0.8414 C   0  0  0  0  0  0  0  0  0  0  0  0
   -4.8369   -0.0680    1.4374 C   0  0  0  0  0  0  0  0  0  0  0  0
    3.3087   -0.7888   -1.2513 C   0  0  0  0  0  0  0  0  0  0  0  0
    1.8912    0.8765   -0.2139 C   0  0  0  0  0  0  0  0  0  0  0  0
    4.4476   -0.1896   -0.5737 C   0  0  0  0  0  0  0  0  0  0  0  0
    2.9348    1.4045    0.4459 C   0  0  0  0  0  0  0  0  0  0  0  0
    0.6125    1.3553   -0.0382 O   0  0  0  0  0  0  0  0  0  0  0  0
    4.2779    0.8664    0.2480 C   0  0  0  0  0  0  0  0  0  0  0  0
    5.3998    1.5280    0.9863 C   0  0  0  0  0  0  0  0  0  0  0  0
  1  2  1  0
  3  1  1  0
  3  4  1  0
  3  5  2  0
  4  6  2  0
  7  4  1  0
  6  8  1  0
  9  7  2  0
  8 10  2  0
 10  9  1  0
 11 10  1  0
 11 12  1  0
 11 13  1  0
  2 14  2  0
 15  2  1  0
 14 16  1  0
 17 15  2  0
 15 18  1  0
 16 19  2  0
 19 17  1  0
 19 20  1  0
M  END
>  <ID>  (161) 


>  <MolWt>  (161) 
269.141579

>  <LogP>  (161) 
4.07632

>  <NumHDonors>  (161) 
2

>  <NumHAcceptors>  (161) 
2

$$$$

     RDKit          3D

 19 20  0  0  0  0  0  0  0  0999 V2000
    1.7166    1.5649   -1.3599 N   0  0  0  0  0  0  0  0  0  0  0  0
    2.7161    0.6994   -0.9750 C   0  0  0  0  0  0  0  0  0  0  0  0
    1.1411    2.4143   -0.4364 C   0  0  0  0  0  0  0  0  0  0  0  0
   -0.1302    1.9014    0.1352 C   0  0  0  0  0  0  0  0  0  0  0  0
    1.5934    3.5087   -0.1220 O   0  0  0  0  0  0  0  0  0  0  0  0
   -1.2605    2.1016   -0.5695 C   0  0  0  0  0  0  0  0  0  0  0  0
   -0.1280    0.9501    1.2346 C   0  0  0  0  0  0  0  0  0  0  0  0
   -2.3446    1.1363   -0.4540 C   0  0  0  0  0  0  0  0  0  0  0  0
   -1.1282    0.0553    1.3316 C   0  0  0  0  0  0  0  0  0  0  0  0
   -2.1979    0.0455    0.3311 C   0  0  0  0  0  0  0  0  0  0  0  0
   -2.9609   -1.2496    0.1324 C   0  0  0  0  0  0  0  0  0  0  0  0
   -2.7527   -1.8236   -1.2723 C   0  0  0  0  0  0  0  0  0  0  0  0
   -4.4523   -1.0748    0.4298 C   0  0  0  0  0  0  0  0  0  0  0  0
    3.9713    1.1249   -0.7341 C   0  0  0  0  0  0  0  0  0  0  0  0
    2.4316   -0.7290   -0.9425 C   0  0  0  0  0  0  0  0  0  0  0  0
    5.0046    0.1722   -0.3561 C   0  0  0  0  0  0  0  0  0  0  0  0
    3.3874   -1.6142   -0.6168 C   0  0  0  0  0  0  0  0  0  0  0  0
    1.1911   -1.1513   -1.2643 F   0  0  0  0  0  0  0  0  0  0  0  0
    4.7244   -1.1426   -0.2969 C   0  0  0  0  0  0  0  0  0  0  0  0
  1  2  1  0
  3  1  1  0
  3  4  1  0
  3  5  2  0
  4  6  2  0
  7  4  1  0
  6  8  1  0
  9  7  2  0
  8 10  2  0
 10  9  1  0
 11 10  1  0
 11 12  1  0
 11 13  1  0
  2 14  2  0
 15  2  1  0
 14 16  1  0
 17 15  2  0
 15 18  1  0
 16 19  2  0
 19 17  1  0
M  END
>  <ID>  (162) 


>  <MolWt>  (162) 
257.121592

>  <LogP>  (162) 
4.2014

>  <NumHDonors>  (162) 
1

>  <NumHAcceptors>  (162) 
1

$$$$

     RDKit          3D

 19 20  0  0  0  0  0  0  0  0999 V2000
    1.7107    0.5191   -1.8090 N   0  0  0  0  0  0  0  0  0  0  0  0
    2.6258    0.4097   -0.7953 C   0  0  0  0  0  0  0  0  0  0  0  0
    1.1115   -0.5910   -2.3617 C   0  0  0  0  0  0  0  0  0  0  0  0
   -0.1867   -0.9414   -1.7305 C   0  0  0  0  0  0  0  0  0  0  0  0
    1.5564   -1.2167   -3.3159 O   0  0  0  0  0  0  0  0  0  0  0  0
   -0.1720   -1.8184   -0.7087 C   0  0  0  0  0  0  0  0  0  0  0  0
   -1.3819   -0.1509   -1.9812 C   0  0  0  0  0  0  0  0  0  0  0  0
   -1.2056   -1.7345    0.3124 C   0  0  0  0  0  0  0  0  0  0  0  0
   -2.3275   -0.0663   -1.0273 C   0  0  0  0  0  0  0  0  0  0  0  0
   -2.1449   -0.7653    0.2476 C   0  0  0  0  0  0  0  0  0  0  0  0
   -2.9188   -0.3117    1.4698 C   0  0  0  0  0  0  0  0  0  0  0  0
   -2.6780    1.1658    1.7942 C   0  0  0  0  0  0  0  0  0  0  0  0
   -4.4153   -0.6045    1.3365 C   0  0  0  0  0  0  0  0  0  0  0  0
    2.3042    0.7131    0.4781 C   0  0  0  0  0  0  0  0  0  0  0  0
    4.0271    0.2804   -1.1748 C   0  0  0  0  0  0  0  0  0  0  0  0
    3.3487    1.0852    1.4208 C   0  0  0  0  0  0  0  0  0  0  0  0
    4.9951    0.5800   -0.2889 C   0  0  0  0  0  0  0  0  0  0  0  0
    4.6352    1.0162    1.0434 C   0  0  0  0  0  0  0  0  0  0  0  0
    5.6230    1.3414    1.8998 F   0  0  0  0  0  0  0  0  0  0  0  0
  1  2  1  0
  3  1  1  0
  3  4  1  0
  3  5  2  0
  4  6  2  0
  7  4  1  0
  6  8  1  0
  9  7  2  0
  8 10  2  0
 10  9  1  0
 11 10  1  0
 11 12  1  0
 11 13  1  0
  2 14  2  0
 15  2  1  0
 14 16  1  0
 17 15  2  0
 16 18  2  0
 18 17  1  0
 18 19  1  0
M  END
>  <ID>  (163) 


>  <MolWt>  (163) 
257.121592

>  <LogP>  (163) 
4.2014

>  <NumHDonors>  (163) 
1

>  <NumHAcceptors>  (163) 
1

$$$$

     RDKit          3D

 18 19  0  0  0  0  0  0  0  0999 V2000
    2.3360   -1.6086    0.5268 N   0  0  0  0  0  0  0  0  0  0  0  0
    3.0634   -0.4852    0.2078 C   0  0  0  0  0  0  0  0  0  0  0  0
    1.3785   -2.0814   -0.3430 C   0  0  0  0  0  0  0  0  0  0  0  0
    0.0724   -1.3841   -0.2425 C   0  0  0  0  0  0  0  0  0  0  0  0
    1.5713   -3.0201   -1.1063 O   0  0  0  0  0  0  0  0  0  0  0  0
   -0.8363   -1.8293    0.6455 C   0  0  0  0  0  0  0  0  0  0  0  0
   -0.2437   -0.2595   -1.1074 C   0  0  0  0  0  0  0  0  0  0  0  0
   -2.0747   -1.0917    0.8314 C   0  0  0  0  0  0  0  0  0  0  0  0
   -1.4403    0.3478   -1.0073 C   0  0  0  0  0  0  0  0  0  0  0  0
   -2.4369   -0.1291   -0.0453 C   0  0  0  0  0  0  0  0  0  0  0  0
   -3.8617    0.3847   -0.1345 C   0  0  0  0  0  0  0  0  0  0  0  0
   -4.5216    0.0204   -1.4685 C   0  0  0  0  0  0  0  0  0  0  0  0
   -3.9509    1.8916    0.1248 C   0  0  0  0  0  0  0  0  0  0  0  0
    2.9729    0.6271    0.9596 C   0  0  0  0  0  0  0  0  0  0  0  0
    4.1230   -0.5993   -0.7849 C   0  0  0  0  0  0  0  0  0  0  0  0
    4.0186    1.6350    0.8972 C   0  0  0  0  0  0  0  0  0  0  0  0
    5.0705    0.3525   -0.8704 C   0  0  0  0  0  0  0  0  0  0  0  0
    5.0283    1.5008    0.0189 C   0  0  0  0  0  0  0  0  0  0  0  0
  1  2  1  0
  3  1  1  0
  3  4  1  0
  3  5  2  0
  4  6  2  0
  7  4  1  0
  6  8  1  0
  9  7  2  0
  8 10  2  0
 10  9  1  0
 11 10  1  0
 11 12  1  0
 11 13  1  0
  2 14  2  0
 15  2  1  0
 14 16  1  0
 17 15  2  0
 16 18  2  0
 18 17  1  0
M  END
>  <ID>  (164) 


>  <MolWt>  (164) 
239.131014

>  <LogP>  (164) 
4.0623

>  <NumHDonors>  (164) 
1

>  <NumHAcceptors>  (164) 
1

$$$$

     RDKit          3D

 20 21  0  0  0  0  0  0  0  0999 V2000
    1.5067    1.5072   -1.3217 N   0  0  0  0  0  0  0  0  0  0  0  0
    2.5905    0.7343   -0.9710 C   0  0  0  0  0  0  0  0  0  0  0  0
    0.9943    2.4283   -0.4296 C   0  0  0  0  0  0  0  0  0  0  0  0
   -0.2009    1.9439    0.3069 C   0  0  0  0  0  0  0  0  0  0  0  0
    1.4437    3.5552   -0.2599 O   0  0  0  0  0  0  0  0  0  0  0  0
   -1.3943    2.0316   -0.3115 C   0  0  0  0  0  0  0  0  0  0  0  0
   -0.0633    1.1008    1.4834 C   0  0  0  0  0  0  0  0  0  0  0  0
   -2.4132    1.0319   -0.0237 C   0  0  0  0  0  0  0  0  0  0  0  0
   -1.0048    0.1748    1.7420 C   0  0  0  0  0  0  0  0  0  0  0  0
   -2.1475    0.0248    0.8381 C   0  0  0  0  0  0  0  0  0  0  0  0
   -2.8539   -1.3168    0.8162 C   0  0  0  0  0  0  0  0  0  0  0  0
   -2.7127   -2.0116   -0.5415 C   0  0  0  0  0  0  0  0  0  0  0  0
   -4.3287   -1.1839    1.2050 C   0  0  0  0  0  0  0  0  0  0  0  0
    3.8400    1.2391   -0.9341 C   0  0  0  0  0  0  0  0  0  0  0  0
    2.3914   -0.6952   -0.7596 C   0  0  0  0  0  0  0  0  0  0  0  0
    4.9648    0.3720   -0.6134 C   0  0  0  0  0  0  0  0  0  0  0  0
    3.4275   -1.5017   -0.4808 C   0  0  0  0  0  0  0  0  0  0  0  0
    1.1443   -1.1991   -0.8668 F   0  0  0  0  0  0  0  0  0  0  0  0
    4.7561   -0.9366   -0.3963 C   0  0  0  0  0  0  0  0  0  0  0  0
    5.7817   -1.7575   -0.0991 F   0  0  0  0  0  0  0  0  0  0  0  0
  1  2  1  0
  3  1  1  0
  3  4  1  0
  3  5  2  0
  4  6  2  0
  7  4  1  0
  6  8  1  0
  9  7  2  0
  8 10  2  0
 10  9  1  0
 11 10  1  0
 11 12  1  0
 11 13  1  0
  2 14  2  0
 15  2  1  0
 14 16  1  0
 17 15  2  0
 15 18  1  0
 16 19  2  0
 19 17  1  0
 19 20  1  0
M  END
>  <ID>  (165) 


>  <MolWt>  (165) 
275.112171

>  <LogP>  (165) 
4.3405

>  <NumHDonors>  (165) 
1

>  <NumHAcceptors>  (165) 
1

$$$$
