Untitled Document-1
  Mrv0541 06191716202D          

 19 20  0  0  0  0            999 V2000
    6.7262   -5.1433    0.0000 C   0  0  0  0  0  0  0  0  0  0  0  0
    6.0118   -5.5558    0.0000 C   0  0  0  0  0  0  0  0  0  0  0  0
    6.0118   -6.3808    0.0000 C   0  0  0  0  0  0  0  0  0  0  0  0
    5.2973   -6.7933    0.0000 C   0  0  0  0  0  0  0  0  0  0  0  0
    4.5829   -6.3808    0.0000 C   0  0  0  0  0  0  0  0  0  0  0  0
    4.5829   -5.5558    0.0000 C   0  0  0  0  0  0  0  0  0  0  0  0
    5.2973   -5.1433    0.0000 C   0  0  0  0  0  0  0  0  0  0  0  0
    6.7262   -4.3183    0.0000 O   0  0  0  0  0  0  0  0  0  0  0  0
    7.4407   -5.5558    0.0000 N   0  0  0  0  0  0  0  0  0  0  0  0
    8.1554   -5.1433    0.0000 C   0  0  0  0  0  0  0  0  0  0  0  0
    8.1554   -4.3183    0.0000 C   0  0  0  0  0  0  0  0  0  0  0  0
    8.8699   -3.9058    0.0000 C   0  0  0  0  0  0  0  0  0  0  0  0
    9.5843   -4.3183    0.0000 C   0  0  0  0  0  0  0  0  0  0  0  0
    9.5843   -5.1433    0.0000 C   0  0  0  0  0  0  0  0  0  0  0  0
    8.8699   -5.5558    0.0000 C   0  0  0  0  0  0  0  0  0  0  0  0
   10.2988   -3.9058    0.0000 O   0  0  0  0  0  0  0  0  0  0  0  0
   11.0132   -4.3183    0.0000 C   0  0  0  0  0  0  0  0  0  0  0  0
    3.8684   -5.1433    0.0000 I   0  0  0  0  0  0  0  0  0  0  0  0
    6.7262   -6.7933    0.0000 O   0  0  0  0  0  0  0  0  0  0  0  0
  1  2  1  0  0  0  0
  2  3  4  0  0  0  0
  3  4  4  0  0  0  0
  4  5  4  0  0  0  0
  5  6  4  0  0  0  0
  6  7  4  0  0  0  0
  2  7  4  0  0  0  0
  1  8  2  0  0  0  0
  1  9  1  0  0  0  0
 10 11  4  0  0  0  0
 11 12  4  0  0  0  0
 12 13  4  0  0  0  0
 13 14  4  0  0  0  0
 14 15  4  0  0  0  0
 10 15  4  0  0  0  0
 16 17  1  0  0  0  0
 13 16  1  0  0  0  0
  9 10  1  0  0  0  0
  6 18  1  0  0  0  0
  3 19  1  0  0  0  0
M  END
> <From>
www.bindingDB.org

> <BindingDB Reactant_set_id>
408371

> <Ligand InChI>
InChI=1S/C14H12INO3/c1-19-11-5-3-10(4-6-11)16-14(18)12-8-9(15)2-7-13(12)17/h2-8,17H,1H3,(H,16,18)

> <Ligand InChI Key>
WJUFTZFAQYHROG-UHFFFAOYSA-N

> <BindingDB MonomerID>
234326

> <BindingDB Ligand Name>
2-Hydroxy-5-iodo-N-(4-methoxyphenyl)benzamide (28)

> <Target Name>
Epidermal growth factor receptor [645-1186]

> <Target Source Organism According to Curator or DataSource>


> <Ki (nM)>


> <IC50 (nM)>
 630

> <Kd (nM)>


> <EC50 (nM)>


> <kon (M-1-s-1)>


> <koff (s-1)>


> <pH>
7.4

> <Temp C>
25.00

> <Curation/DataSource>
Curated from the literature by BindingDB

> <Article DOI>
10.3109/14756361003671060

> <BindingDB Entry DOI>
10.7270/Q2XW4HPN

> <PMID>
20583855

> <PubChem AID>
aid1802974

> <Patent Number>


> <Authors>
Zhu, ZW; Shi, L; Ruan, XM; Yang, Y; Li, HQ; Xu, SP; Zhu, HL

> <Institution>
Nanjing University

> <Link to Ligand in BindingDB>
http://www.bindingdb.org/bind/chemsearch/marvin/MolStructure.jsp?monomerid=234326

> <Link to Ligand-Target Pair in BindingDB>
http://www.bindingdb.org/jsp/dbsearch/PrimarySearch_ki.jsp?energyterm=kJ/mole&tag=pol&polymerid=10043&target=Epidermal+growth+factor+receptor+%5B645-1186%5D&column=ki&startPg=0&Increment=50&submit=Search

> <Link to Ligand-Target Pair in BindingDB>
http://www.bindingdb.org/jsp/dbsearch/PrimarySearch_ki.jsp?energyterm=kJ/mole&tag=r21&monomerid=234326&enzyme=Epidermal+growth+factor+receptor+%5B645-1186%5D&column=ki&startPg=0&Increment=50&submit=Search

> <Ligand HET ID in PDB>


> <PDB ID(s) for Ligand-Target Complex>


> <PubChem CID of Ligand>
27228916

> <PubChem SID of Ligand>
340094315

> <ChEBI ID of Ligand>


> <ChEMBL ID of Ligand>


> <DrugBank ID of Ligand>


> <IUPHAR_GRAC ID of Ligand>


> <KEGG ID of Ligand>


> <ZINC ID of Ligand>


> <Number of Protein Chains in Target (bigger than 1 implies a multichain complex)>
1

> <BindingDB Target Chain Sequence>
SIATGMVGALLLLLVVALGIGLFMRRRHIVRKRTLRRLLQERELVEPLTPSGEAPNQALLRILKETEFKKIKVLGSGAFGTVYKGLWIPEGEKVKIPVAIKELREATSPKANKEILDEAYVMASVDNPHVCRLLGICLTSTVQLITQLMPFGCLLDYVREHKDNIGSQYLLNWCVQIAKGMNYLEDRRLVHRDLAARNVLVKTPQHVKITDFGLAKLLGAEEKEYHAEGGKVPIKWMALESILHRIYTHQSDVWSYGVTVWELMTFGSKPYDGIPASEISSILEKGERLPQPPICTIDVYMIMVKCWMIDADSRPKFRELIIEFSKMARDPQRYLVIQGDERMHLPSPTDSNFYRALMDEEDMDDVVDADEYLIPQQGFFSSPSTSRTPLLSSLSATSNNSTVACIDRNGLQSCPIKEDSFLQRYSSDPTGALTEDSIDDTFLPVPEYINQSVPKRPAGSVQNPVYHNQPLNPAPSRDPHYQDPHSTAVGNPEYLNTVQPTCVNSTFDSPAHWAQKGSHQISLDNPDYQQDFFPKEAKPNGI

> <PDB ID(s) of Target Chain>
1M14,1M17,1XKK,1Z9I,2GS2,2GS6,2ITW,2ITX,2ITY,2J5E,2J5F,2J6M,2RF9,2RGP,3BEL,3GOP,3POZ,3VJO,3W2O,3W2P,3W2Q,3W2R,3W2S,3W32,3W33,4G5J,4I23,4JQ7,4JQ8,4JR3,4JRV,4LI5,4RJ4,4RJ5,4RJ6,4RJ7,4RJ8,4TKS,4WKQ,4WRG,4ZAU,5C8K,5C8M,5C8N,5CAL,5CAN,5CAO,5CAP,5CAQ,5CAS,5CAU,5CAV,5EDP,5EDQ,5EDR,5EM5,5EM6,5EM7,5EM8,5GNK,5HCX,5HCY,5HCZ,5HIB,5HIC,5UGB,5Y25,6D8E,6JZ0,6S89,6S8A,6VH4,6VHN,6VHP,7AEI,7AEM,7B85,7OXB,7SI1,7UKV,7ZYM,7ZYN,7ZYP,8A27,8A2A,8HY7

> <UniProt (SwissProt) Recommended Name of Target Chain>
Epidermal growth factor receptor

> <UniProt (SwissProt) Entry Name of Target Chain>
EGFR_HUMAN

> <UniProt (SwissProt) Primary ID of Target Chain>
P00533

> <UniProt (SwissProt) Secondary ID(s) of Target Chain>
O00688 O00732 P06268 Q14225 Q68GS5 Q92795 Q9BZS2 Q9GZX1 Q9H2C9 Q9H3C9 Q9UMD7 Q9UMD8 Q9UMG5

> <UniProt (SwissProt) Alternative ID(s) of Target Chain>


> <UniProt (TrEMBL) Submitted Name of Target Chain>


> <UniProt (TrEMBL) Entry Name of Target Chain>


> <UniProt (TrEMBL) Primary ID of Target Chain>


> <UniProt (TrEMBL) Secondary ID(s) of Target Chain>


> <UniProt (TrEMBL) Alternative ID(s) of Target Chain>


$$$$
Untitled Document-1
  Mrv0541 06191716202D          

 18 19  0  0  0  0            999 V2000
    7.4374   -5.1417    0.0000 C   0  0  0  0  0  0  0  0  0  0  0  0
    6.7229   -5.5542    0.0000 C   0  0  0  0  0  0  0  0  0  0  0  0
    6.7229   -6.3792    0.0000 C   0  0  0  0  0  0  0  0  0  0  0  0
    6.0085   -6.7917    0.0000 C   0  0  0  0  0  0  0  0  0  0  0  0
    5.2940   -6.3792    0.0000 C   0  0  0  0  0  0  0  0  0  0  0  0
    5.2940   -5.5542    0.0000 C   0  0  0  0  0  0  0  0  0  0  0  0
    6.0085   -5.1417    0.0000 C   0  0  0  0  0  0  0  0  0  0  0  0
    7.4374   -4.3167    0.0000 O   0  0  0  0  0  0  0  0  0  0  0  0
    8.1518   -5.5542    0.0000 N   0  0  0  0  0  0  0  0  0  0  0  0
    4.5796   -5.1417    0.0000 I   0  0  0  0  0  0  0  0  0  0  0  0
    7.4374   -6.7917    0.0000 O   0  0  0  0  0  0  0  0  0  0  0  0
    8.8663   -5.1417    0.0000 C   0  0  0  0  0  0  0  0  0  0  0  0
    8.8663   -4.3167    0.0000 C   0  0  0  0  0  0  0  0  0  0  0  0
    9.5807   -3.9042    0.0000 C   0  0  0  0  0  0  0  0  0  0  0  0
   10.2952   -4.3167    0.0000 C   0  0  0  0  0  0  0  0  0  0  0  0
   10.2952   -5.1417    0.0000 C   0  0  0  0  0  0  0  0  0  0  0  0
    9.5807   -5.5542    0.0000 C   0  0  0  0  0  0  0  0  0  0  0  0
    8.1518   -3.9042    0.0000 Br  0  0  0  0  0  0  0  0  0  0  0  0
  1  2  1  0  0  0  0
  2  3  4  0  0  0  0
  3  4  4  0  0  0  0
  4  5  4  0  0  0  0
  5  6  4  0  0  0  0
  6  7  4  0  0  0  0
  2  7  4  0  0  0  0
  1  8  2  0  0  0  0
  1  9  1  0  0  0  0
  6 10  1  0  0  0  0
  3 11  1  0  0  0  0
 12 13  4  0  0  0  0
 13 14  4  0  0  0  0
 14 15  4  0  0  0  0
 15 16  4  0  0  0  0
 16 17  4  0  0  0  0
 12 17  4  0  0  0  0
 13 18  1  0  0  0  0
  9 12  1  0  0  0  0
M  END
> <From>
www.bindingDB.org

> <BindingDB Reactant_set_id>
408365

> <Ligand InChI>
InChI=1S/C13H9BrINO2/c14-10-3-1-2-4-11(10)16-13(18)9-7-8(15)5-6-12(9)17/h1-7,17H,(H,16,18)

> <Ligand InChI Key>
UJXWHCDXPOPQCH-UHFFFAOYSA-N

> <BindingDB MonomerID>
234320

> <BindingDB Ligand Name>
N-(2-bromophenyl)-2-hydroxy-5-iodobenzamide (22)

> <Target Name>
Epidermal growth factor receptor [645-1186]

> <Target Source Organism According to Curator or DataSource>


> <Ki (nM)>


> <IC50 (nM)>
 920

> <Kd (nM)>


> <EC50 (nM)>


> <kon (M-1-s-1)>


> <koff (s-1)>


> <pH>
7.4

> <Temp C>
25.00

> <Curation/DataSource>
Curated from the literature by BindingDB

> <Article DOI>
10.3109/14756361003671060

> <BindingDB Entry DOI>
10.7270/Q2XW4HPN

> <PMID>
20583855

> <PubChem AID>
aid1802974

> <Patent Number>


> <Authors>
Zhu, ZW; Shi, L; Ruan, XM; Yang, Y; Li, HQ; Xu, SP; Zhu, HL

> <Institution>
Nanjing University

> <Link to Ligand in BindingDB>
http://www.bindingdb.org/bind/chemsearch/marvin/MolStructure.jsp?monomerid=234320

> <Link to Ligand-Target Pair in BindingDB>
http://www.bindingdb.org/jsp/dbsearch/PrimarySearch_ki.jsp?energyterm=kJ/mole&tag=pol&polymerid=10043&target=Epidermal+growth+factor+receptor+%5B645-1186%5D&column=ki&startPg=0&Increment=50&submit=Search

> <Link to Ligand-Target Pair in BindingDB>
http://www.bindingdb.org/jsp/dbsearch/PrimarySearch_ki.jsp?energyterm=kJ/mole&tag=r21&monomerid=234320&enzyme=Epidermal+growth+factor+receptor+%5B645-1186%5D&column=ki&startPg=0&Increment=50&submit=Search

> <Ligand HET ID in PDB>


> <PDB ID(s) for Ligand-Target Complex>


> <PubChem CID of Ligand>
51351600

> <PubChem SID of Ligand>
340094309

> <ChEBI ID of Ligand>


> <ChEMBL ID of Ligand>


> <DrugBank ID of Ligand>


> <IUPHAR_GRAC ID of Ligand>


> <KEGG ID of Ligand>


> <ZINC ID of Ligand>


> <Number of Protein Chains in Target (bigger than 1 implies a multichain complex)>
1

> <BindingDB Target Chain Sequence>
SIATGMVGALLLLLVVALGIGLFMRRRHIVRKRTLRRLLQERELVEPLTPSGEAPNQALLRILKETEFKKIKVLGSGAFGTVYKGLWIPEGEKVKIPVAIKELREATSPKANKEILDEAYVMASVDNPHVCRLLGICLTSTVQLITQLMPFGCLLDYVREHKDNIGSQYLLNWCVQIAKGMNYLEDRRLVHRDLAARNVLVKTPQHVKITDFGLAKLLGAEEKEYHAEGGKVPIKWMALESILHRIYTHQSDVWSYGVTVWELMTFGSKPYDGIPASEISSILEKGERLPQPPICTIDVYMIMVKCWMIDADSRPKFRELIIEFSKMARDPQRYLVIQGDERMHLPSPTDSNFYRALMDEEDMDDVVDADEYLIPQQGFFSSPSTSRTPLLSSLSATSNNSTVACIDRNGLQSCPIKEDSFLQRYSSDPTGALTEDSIDDTFLPVPEYINQSVPKRPAGSVQNPVYHNQPLNPAPSRDPHYQDPHSTAVGNPEYLNTVQPTCVNSTFDSPAHWAQKGSHQISLDNPDYQQDFFPKEAKPNGI

> <PDB ID(s) of Target Chain>
1M14,1M17,1XKK,1Z9I,2GS2,2GS6,2ITW,2ITX,2ITY,2J5E,2J5F,2J6M,2RF9,2RGP,3BEL,3GOP,3POZ,3VJO,3W2O,3W2P,3W2Q,3W2R,3W2S,3W32,3W33,4G5J,4I23,4JQ7,4JQ8,4JR3,4JRV,4LI5,4RJ4,4RJ5,4RJ6,4RJ7,4RJ8,4TKS,4WKQ,4WRG,4ZAU,5C8K,5C8M,5C8N,5CAL,5CAN,5CAO,5CAP,5CAQ,5CAS,5CAU,5CAV,5EDP,5EDQ,5EDR,5EM5,5EM6,5EM7,5EM8,5GNK,5HCX,5HCY,5HCZ,5HIB,5HIC,5UGB,5Y25,6D8E,6JZ0,6S89,6S8A,6VH4,6VHN,6VHP,7AEI,7AEM,7B85,7OXB,7SI1,7UKV,7ZYM,7ZYN,7ZYP,8A27,8A2A,8HY7

> <UniProt (SwissProt) Recommended Name of Target Chain>
Epidermal growth factor receptor

> <UniProt (SwissProt) Entry Name of Target Chain>
EGFR_HUMAN

> <UniProt (SwissProt) Primary ID of Target Chain>
P00533

> <UniProt (SwissProt) Secondary ID(s) of Target Chain>
O00688 O00732 P06268 Q14225 Q68GS5 Q92795 Q9BZS2 Q9GZX1 Q9H2C9 Q9H3C9 Q9UMD7 Q9UMD8 Q9UMG5

> <UniProt (SwissProt) Alternative ID(s) of Target Chain>


> <UniProt (TrEMBL) Submitted Name of Target Chain>


> <UniProt (TrEMBL) Entry Name of Target Chain>


> <UniProt (TrEMBL) Primary ID of Target Chain>


> <UniProt (TrEMBL) Secondary ID(s) of Target Chain>


> <UniProt (TrEMBL) Alternative ID(s) of Target Chain>


$$$$
Untitled Document-1
  Mrv0541 06191716202D          

 18 19  0  0  0  0            999 V2000
    7.0835   -5.0886    0.0000 C   0  0  0  0  0  0  0  0  0  0  0  0
    6.3690   -5.5011    0.0000 C   0  0  0  0  0  0  0  0  0  0  0  0
    6.3690   -6.3261    0.0000 C   0  0  0  0  0  0  0  0  0  0  0  0
    5.6546   -6.7386    0.0000 C   0  0  0  0  0  0  0  0  0  0  0  0
    4.9401   -6.3261    0.0000 C   0  0  0  0  0  0  0  0  0  0  0  0
    4.9401   -5.5011    0.0000 C   0  0  0  0  0  0  0  0  0  0  0  0
    5.6546   -5.0886    0.0000 C   0  0  0  0  0  0  0  0  0  0  0  0
    7.0835   -4.2636    0.0000 O   0  0  0  0  0  0  0  0  0  0  0  0
    7.7982   -5.5011    0.0000 N   0  0  0  0  0  0  0  0  0  0  0  0
    8.5126   -5.0886    0.0000 C   0  0  0  0  0  0  0  0  0  0  0  0
    8.5126   -4.2636    0.0000 C   0  0  0  0  0  0  0  0  0  0  0  0
    9.9415   -4.2636    0.0000 C   0  0  0  0  0  0  0  0  0  0  0  0
    9.2271   -5.5011    0.0000 C   0  0  0  0  0  0  0  0  0  0  0  0
    9.2271   -3.8511    0.0000 C   0  0  0  0  0  0  0  0  0  0  0  0
    9.9415   -5.0886    0.0000 C   0  0  0  0  0  0  0  0  0  0  0  0
   10.6560   -3.8511    0.0000 C   0  0  0  0  0  0  0  0  0  0  0  0
    4.2257   -5.0886    0.0000 I   0  0  0  0  0  0  0  0  0  0  0  0
    7.0835   -6.7386    0.0000 O   0  0  0  0  0  0  0  0  0  0  0  0
  1  2  1  0  0  0  0
  2  3  4  0  0  0  0
  3  4  4  0  0  0  0
  4  5  4  0  0  0  0
  5  6  4  0  0  0  0
  6  7  4  0  0  0  0
  2  7  4  0  0  0  0
  1  8  2  0  0  0  0
  1  9  1  0  0  0  0
 10 11  4  0  0  0  0
 10 13  4  0  0  0  0
 11 14  4  0  0  0  0
 12 14  4  0  0  0  0
 12 15  4  0  0  0  0
 13 15  4  0  0  0  0
 12 16  1  0  0  0  0
  9 10  1  0  0  0  0
  6 17  1  0  0  0  0
  3 18  1  0  0  0  0
M  END
> <From>
www.bindingDB.org

> <BindingDB Reactant_set_id>
408370

> <Ligand InChI>
InChI=1S/C14H12INO2/c1-9-2-5-11(6-3-9)16-14(18)12-8-10(15)4-7-13(12)17/h2-8,17H,1H3,(H,16,18)

> <Ligand InChI Key>
FJIYUFGXIDULBA-UHFFFAOYSA-N

> <BindingDB MonomerID>
234325

> <BindingDB Ligand Name>
2-Hydroxy-5-iodo-N-p-tolylbenzamide (27)

> <Target Name>
Epidermal growth factor receptor [645-1186]

> <Target Source Organism According to Curator or DataSource>


> <Ki (nM)>


> <IC50 (nM)>
 2680

> <Kd (nM)>


> <EC50 (nM)>


> <kon (M-1-s-1)>


> <koff (s-1)>


> <pH>
7.4

> <Temp C>
25.00

> <Curation/DataSource>
Curated from the literature by BindingDB

> <Article DOI>
10.3109/14756361003671060

> <BindingDB Entry DOI>
10.7270/Q2XW4HPN

> <PMID>
20583855

> <PubChem AID>
aid1802974

> <Patent Number>


> <Authors>
Zhu, ZW; Shi, L; Ruan, XM; Yang, Y; Li, HQ; Xu, SP; Zhu, HL

> <Institution>
Nanjing University

> <Link to Ligand in BindingDB>
http://www.bindingdb.org/bind/chemsearch/marvin/MolStructure.jsp?monomerid=234325

> <Link to Ligand-Target Pair in BindingDB>
http://www.bindingdb.org/jsp/dbsearch/PrimarySearch_ki.jsp?energyterm=kJ/mole&tag=pol&polymerid=10043&target=Epidermal+growth+factor+receptor+%5B645-1186%5D&column=ki&startPg=0&Increment=50&submit=Search

> <Link to Ligand-Target Pair in BindingDB>
http://www.bindingdb.org/jsp/dbsearch/PrimarySearch_ki.jsp?energyterm=kJ/mole&tag=r21&monomerid=234325&enzyme=Epidermal+growth+factor+receptor+%5B645-1186%5D&column=ki&startPg=0&Increment=50&submit=Search

> <Ligand HET ID in PDB>


> <PDB ID(s) for Ligand-Target Complex>


> <PubChem CID of Ligand>
53259946

> <PubChem SID of Ligand>
340094314

> <ChEBI ID of Ligand>


> <ChEMBL ID of Ligand>


> <DrugBank ID of Ligand>


> <IUPHAR_GRAC ID of Ligand>


> <KEGG ID of Ligand>


> <ZINC ID of Ligand>


> <Number of Protein Chains in Target (bigger than 1 implies a multichain complex)>
1

> <BindingDB Target Chain Sequence>
SIATGMVGALLLLLVVALGIGLFMRRRHIVRKRTLRRLLQERELVEPLTPSGEAPNQALLRILKETEFKKIKVLGSGAFGTVYKGLWIPEGEKVKIPVAIKELREATSPKANKEILDEAYVMASVDNPHVCRLLGICLTSTVQLITQLMPFGCLLDYVREHKDNIGSQYLLNWCVQIAKGMNYLEDRRLVHRDLAARNVLVKTPQHVKITDFGLAKLLGAEEKEYHAEGGKVPIKWMALESILHRIYTHQSDVWSYGVTVWELMTFGSKPYDGIPASEISSILEKGERLPQPPICTIDVYMIMVKCWMIDADSRPKFRELIIEFSKMARDPQRYLVIQGDERMHLPSPTDSNFYRALMDEEDMDDVVDADEYLIPQQGFFSSPSTSRTPLLSSLSATSNNSTVACIDRNGLQSCPIKEDSFLQRYSSDPTGALTEDSIDDTFLPVPEYINQSVPKRPAGSVQNPVYHNQPLNPAPSRDPHYQDPHSTAVGNPEYLNTVQPTCVNSTFDSPAHWAQKGSHQISLDNPDYQQDFFPKEAKPNGI

> <PDB ID(s) of Target Chain>
1M14,1M17,1XKK,1Z9I,2GS2,2GS6,2ITW,2ITX,2ITY,2J5E,2J5F,2J6M,2RF9,2RGP,3BEL,3GOP,3POZ,3VJO,3W2O,3W2P,3W2Q,3W2R,3W2S,3W32,3W33,4G5J,4I23,4JQ7,4JQ8,4JR3,4JRV,4LI5,4RJ4,4RJ5,4RJ6,4RJ7,4RJ8,4TKS,4WKQ,4WRG,4ZAU,5C8K,5C8M,5C8N,5CAL,5CAN,5CAO,5CAP,5CAQ,5CAS,5CAU,5CAV,5EDP,5EDQ,5EDR,5EM5,5EM6,5EM7,5EM8,5GNK,5HCX,5HCY,5HCZ,5HIB,5HIC,5UGB,5Y25,6D8E,6JZ0,6S89,6S8A,6VH4,6VHN,6VHP,7AEI,7AEM,7B85,7OXB,7SI1,7UKV,7ZYM,7ZYN,7ZYP,8A27,8A2A,8HY7

> <UniProt (SwissProt) Recommended Name of Target Chain>
Epidermal growth factor receptor

> <UniProt (SwissProt) Entry Name of Target Chain>
EGFR_HUMAN

> <UniProt (SwissProt) Primary ID of Target Chain>
P00533

> <UniProt (SwissProt) Secondary ID(s) of Target Chain>
O00688 O00732 P06268 Q14225 Q68GS5 Q92795 Q9BZS2 Q9GZX1 Q9H2C9 Q9H3C9 Q9UMD7 Q9UMD8 Q9UMG5

> <UniProt (SwissProt) Alternative ID(s) of Target Chain>


> <UniProt (TrEMBL) Submitted Name of Target Chain>


> <UniProt (TrEMBL) Entry Name of Target Chain>


> <UniProt (TrEMBL) Primary ID of Target Chain>


> <UniProt (TrEMBL) Secondary ID(s) of Target Chain>


> <UniProt (TrEMBL) Alternative ID(s) of Target Chain>


$$$$
Untitled Document-1
  Mrv0541 06191716202D          

 18 19  0  0  0  0            999 V2000
    7.4374   -5.1375    0.0000 C   0  0  0  0  0  0  0  0  0  0  0  0
    6.7229   -5.5500    0.0000 C   0  0  0  0  0  0  0  0  0  0  0  0
    6.7229   -6.3750    0.0000 C   0  0  0  0  0  0  0  0  0  0  0  0
    6.0085   -6.7875    0.0000 C   0  0  0  0  0  0  0  0  0  0  0  0
    5.2940   -6.3750    0.0000 C   0  0  0  0  0  0  0  0  0  0  0  0
    5.2940   -5.5500    0.0000 C   0  0  0  0  0  0  0  0  0  0  0  0
    6.0085   -5.1375    0.0000 C   0  0  0  0  0  0  0  0  0  0  0  0
    7.4374   -4.3125    0.0000 O   0  0  0  0  0  0  0  0  0  0  0  0
    8.1518   -5.5500    0.0000 N   0  0  0  0  0  0  0  0  0  0  0  0
    4.5796   -5.1375    0.0000 I   0  0  0  0  0  0  0  0  0  0  0  0
    7.4374   -6.7875    0.0000 O   0  0  0  0  0  0  0  0  0  0  0  0
    8.8663   -5.1375    0.0000 C   0  0  0  0  0  0  0  0  0  0  0  0
    8.8663   -4.3125    0.0000 C   0  0  0  0  0  0  0  0  0  0  0  0
    9.5807   -3.9000    0.0000 C   0  0  0  0  0  0  0  0  0  0  0  0
   10.2952   -4.3125    0.0000 C   0  0  0  0  0  0  0  0  0  0  0  0
   10.2952   -5.1375    0.0000 C   0  0  0  0  0  0  0  0  0  0  0  0
    9.5807   -5.5500    0.0000 C   0  0  0  0  0  0  0  0  0  0  0  0
    8.1518   -3.9000    0.0000 Cl  0  0  0  0  0  0  0  0  0  0  0  0
  1  2  1  0  0  0  0
  2  3  4  0  0  0  0
  3  4  4  0  0  0  0
  4  5  4  0  0  0  0
  5  6  4  0  0  0  0
  6  7  4  0  0  0  0
  2  7  4  0  0  0  0
  1  8  2  0  0  0  0
  1  9  1  0  0  0  0
  6 10  1  0  0  0  0
  3 11  1  0  0  0  0
 12 13  4  0  0  0  0
 13 14  4  0  0  0  0
 14 15  4  0  0  0  0
 15 16  4  0  0  0  0
 16 17  4  0  0  0  0
 12 17  4  0  0  0  0
 13 18  1  0  0  0  0
  9 12  1  0  0  0  0
M  END
> <From>
www.bindingDB.org

> <BindingDB Reactant_set_id>
408364

> <Ligand InChI>
InChI=1S/C13H9ClINO2/c14-10-3-1-2-4-11(10)16-13(18)9-7-8(15)5-6-12(9)17/h1-7,17H,(H,16,18)

> <Ligand InChI Key>
RPTBKEZKPOPWDU-UHFFFAOYSA-N

> <BindingDB MonomerID>
234319

> <BindingDB Ligand Name>
N-(2-chlorophenyl)-2-hydroxy-5-iodobenzamide (21)

> <Target Name>
Epidermal growth factor receptor [645-1186]

> <Target Source Organism According to Curator or DataSource>


> <Ki (nM)>


> <IC50 (nM)>
 4370

> <Kd (nM)>


> <EC50 (nM)>


> <kon (M-1-s-1)>


> <koff (s-1)>


> <pH>
7.4

> <Temp C>
25.00

> <Curation/DataSource>
Curated from the literature by BindingDB

> <Article DOI>
10.3109/14756361003671060

> <BindingDB Entry DOI>
10.7270/Q2XW4HPN

> <PMID>
20583855

> <PubChem AID>
aid1802974

> <Patent Number>


> <Authors>
Zhu, ZW; Shi, L; Ruan, XM; Yang, Y; Li, HQ; Xu, SP; Zhu, HL

> <Institution>
Nanjing University

> <Link to Ligand in BindingDB>
http://www.bindingdb.org/bind/chemsearch/marvin/MolStructure.jsp?monomerid=234319

> <Link to Ligand-Target Pair in BindingDB>
http://www.bindingdb.org/jsp/dbsearch/PrimarySearch_ki.jsp?energyterm=kJ/mole&tag=pol&polymerid=10043&target=Epidermal+growth+factor+receptor+%5B645-1186%5D&column=ki&startPg=0&Increment=50&submit=Search

> <Link to Ligand-Target Pair in BindingDB>
http://www.bindingdb.org/jsp/dbsearch/PrimarySearch_ki.jsp?energyterm=kJ/mole&tag=r21&monomerid=234319&enzyme=Epidermal+growth+factor+receptor+%5B645-1186%5D&column=ki&startPg=0&Increment=50&submit=Search

> <Ligand HET ID in PDB>


> <PDB ID(s) for Ligand-Target Complex>


> <PubChem CID of Ligand>
113220402

> <PubChem SID of Ligand>
340094308

> <ChEBI ID of Ligand>


> <ChEMBL ID of Ligand>


> <DrugBank ID of Ligand>


> <IUPHAR_GRAC ID of Ligand>


> <KEGG ID of Ligand>


> <ZINC ID of Ligand>


> <Number of Protein Chains in Target (bigger than 1 implies a multichain complex)>
1

> <BindingDB Target Chain Sequence>
SIATGMVGALLLLLVVALGIGLFMRRRHIVRKRTLRRLLQERELVEPLTPSGEAPNQALLRILKETEFKKIKVLGSGAFGTVYKGLWIPEGEKVKIPVAIKELREATSPKANKEILDEAYVMASVDNPHVCRLLGICLTSTVQLITQLMPFGCLLDYVREHKDNIGSQYLLNWCVQIAKGMNYLEDRRLVHRDLAARNVLVKTPQHVKITDFGLAKLLGAEEKEYHAEGGKVPIKWMALESILHRIYTHQSDVWSYGVTVWELMTFGSKPYDGIPASEISSILEKGERLPQPPICTIDVYMIMVKCWMIDADSRPKFRELIIEFSKMARDPQRYLVIQGDERMHLPSPTDSNFYRALMDEEDMDDVVDADEYLIPQQGFFSSPSTSRTPLLSSLSATSNNSTVACIDRNGLQSCPIKEDSFLQRYSSDPTGALTEDSIDDTFLPVPEYINQSVPKRPAGSVQNPVYHNQPLNPAPSRDPHYQDPHSTAVGNPEYLNTVQPTCVNSTFDSPAHWAQKGSHQISLDNPDYQQDFFPKEAKPNGI

> <PDB ID(s) of Target Chain>
1M14,1M17,1XKK,1Z9I,2GS2,2GS6,2ITW,2ITX,2ITY,2J5E,2J5F,2J6M,2RF9,2RGP,3BEL,3GOP,3POZ,3VJO,3W2O,3W2P,3W2Q,3W2R,3W2S,3W32,3W33,4G5J,4I23,4JQ7,4JQ8,4JR3,4JRV,4LI5,4RJ4,4RJ5,4RJ6,4RJ7,4RJ8,4TKS,4WKQ,4WRG,4ZAU,5C8K,5C8M,5C8N,5CAL,5CAN,5CAO,5CAP,5CAQ,5CAS,5CAU,5CAV,5EDP,5EDQ,5EDR,5EM5,5EM6,5EM7,5EM8,5GNK,5HCX,5HCY,5HCZ,5HIB,5HIC,5UGB,5Y25,6D8E,6JZ0,6S89,6S8A,6VH4,6VHN,6VHP,7AEI,7AEM,7B85,7OXB,7SI1,7UKV,7ZYM,7ZYN,7ZYP,8A27,8A2A,8HY7

> <UniProt (SwissProt) Recommended Name of Target Chain>
Epidermal growth factor receptor

> <UniProt (SwissProt) Entry Name of Target Chain>
EGFR_HUMAN

> <UniProt (SwissProt) Primary ID of Target Chain>
P00533

> <UniProt (SwissProt) Secondary ID(s) of Target Chain>
O00688 O00732 P06268 Q14225 Q68GS5 Q92795 Q9BZS2 Q9GZX1 Q9H2C9 Q9H3C9 Q9UMD7 Q9UMD8 Q9UMG5

> <UniProt (SwissProt) Alternative ID(s) of Target Chain>


> <UniProt (TrEMBL) Submitted Name of Target Chain>


> <UniProt (TrEMBL) Entry Name of Target Chain>


> <UniProt (TrEMBL) Primary ID of Target Chain>


> <UniProt (TrEMBL) Secondary ID(s) of Target Chain>


> <UniProt (TrEMBL) Alternative ID(s) of Target Chain>


$$$$
Untitled Document-1
  Mrv0541 06191716202D          

 19 20  0  0  0  0            999 V2000
    7.0067   -5.1375    0.0000 C   0  0  0  0  0  0  0  0  0  0  0  0
    6.2923   -5.5500    0.0000 C   0  0  0  0  0  0  0  0  0  0  0  0
    6.2923   -6.3750    0.0000 C   0  0  0  0  0  0  0  0  0  0  0  0
    5.5778   -6.7875    0.0000 C   0  0  0  0  0  0  0  0  0  0  0  0
    4.8634   -6.3750    0.0000 C   0  0  0  0  0  0  0  0  0  0  0  0
    4.8634   -5.5500    0.0000 C   0  0  0  0  0  0  0  0  0  0  0  0
    5.5778   -5.1375    0.0000 C   0  0  0  0  0  0  0  0  0  0  0  0
    7.0067   -4.3125    0.0000 O   0  0  0  0  0  0  0  0  0  0  0  0
    7.7212   -5.5500    0.0000 N   0  0  0  0  0  0  0  0  0  0  0  0
    4.1487   -5.1375    0.0000 I   0  0  0  0  0  0  0  0  0  0  0  0
    7.0067   -6.7875    0.0000 O   0  0  0  0  0  0  0  0  0  0  0  0
    8.4356   -5.1375    0.0000 C   0  0  0  0  0  0  0  0  0  0  0  0
    8.4356   -4.3125    0.0000 C   0  0  0  0  0  0  0  0  0  0  0  0
    9.1501   -3.9000    0.0000 C   0  0  0  0  0  0  0  0  0  0  0  0
    9.8645   -4.3125    0.0000 C   0  0  0  0  0  0  0  0  0  0  0  0
    9.8645   -5.1375    0.0000 C   0  0  0  0  0  0  0  0  0  0  0  0
    9.1501   -5.5500    0.0000 C   0  0  0  0  0  0  0  0  0  0  0  0
   10.5790   -3.9000    0.0000 Cl  0  0  0  0  0  0  0  0  0  0  0  0
    7.7212   -3.9000    0.0000 Cl  0  0  0  0  0  0  0  0  0  0  0  0
  1  2  1  0  0  0  0
  2  3  4  0  0  0  0
  3  4  4  0  0  0  0
  4  5  4  0  0  0  0
  5  6  4  0  0  0  0
  6  7  4  0  0  0  0
  2  7  4  0  0  0  0
  1  8  2  0  0  0  0
  1  9  1  0  0  0  0
  6 10  1  0  0  0  0
  3 11  1  0  0  0  0
 12 13  4  0  0  0  0
 13 14  4  0  0  0  0
 14 15  4  0  0  0  0
 15 16  4  0  0  0  0
 16 17  4  0  0  0  0
 12 17  4  0  0  0  0
 15 18  1  0  0  0  0
 13 19  1  0  0  0  0
  9 12  1  0  0  0  0
M  END
> <From>
www.bindingDB.org

> <BindingDB Reactant_set_id>
408369

> <Ligand InChI>
InChI=1S/C13H8Cl2INO2/c14-7-1-3-11(10(15)5-7)17-13(19)9-6-8(16)2-4-12(9)18/h1-6,18H,(H,17,19)

> <Ligand InChI Key>
KICCRVGNGYUTHW-UHFFFAOYSA-N

> <BindingDB MonomerID>
234324

> <BindingDB Ligand Name>
N-(2,4-dichlorophenyl)-2-hydroxy-5-iodobenzamide (26)

> <Target Name>
Epidermal growth factor receptor [645-1186]

> <Target Source Organism According to Curator or DataSource>


> <Ki (nM)>


> <IC50 (nM)>
 9660

> <Kd (nM)>


> <EC50 (nM)>


> <kon (M-1-s-1)>


> <koff (s-1)>


> <pH>
7.4

> <Temp C>
25.00

> <Curation/DataSource>
Curated from the literature by BindingDB

> <Article DOI>
10.3109/14756361003671060

> <BindingDB Entry DOI>
10.7270/Q2XW4HPN

> <PMID>
20583855

> <PubChem AID>
aid1802974

> <Patent Number>


> <Authors>
Zhu, ZW; Shi, L; Ruan, XM; Yang, Y; Li, HQ; Xu, SP; Zhu, HL

> <Institution>
Nanjing University

> <Link to Ligand in BindingDB>
http://www.bindingdb.org/bind/chemsearch/marvin/MolStructure.jsp?monomerid=234324

> <Link to Ligand-Target Pair in BindingDB>
http://www.bindingdb.org/jsp/dbsearch/PrimarySearch_ki.jsp?energyterm=kJ/mole&tag=pol&polymerid=10043&target=Epidermal+growth+factor+receptor+%5B645-1186%5D&column=ki&startPg=0&Increment=50&submit=Search

> <Link to Ligand-Target Pair in BindingDB>
http://www.bindingdb.org/jsp/dbsearch/PrimarySearch_ki.jsp?energyterm=kJ/mole&tag=r21&monomerid=234324&enzyme=Epidermal+growth+factor+receptor+%5B645-1186%5D&column=ki&startPg=0&Increment=50&submit=Search

> <Ligand HET ID in PDB>


> <PDB ID(s) for Ligand-Target Complex>


> <PubChem CID of Ligand>
21240360

> <PubChem SID of Ligand>
340094313

> <ChEBI ID of Ligand>


> <ChEMBL ID of Ligand>


> <DrugBank ID of Ligand>


> <IUPHAR_GRAC ID of Ligand>


> <KEGG ID of Ligand>


> <ZINC ID of Ligand>


> <Number of Protein Chains in Target (bigger than 1 implies a multichain complex)>
1

> <BindingDB Target Chain Sequence>
SIATGMVGALLLLLVVALGIGLFMRRRHIVRKRTLRRLLQERELVEPLTPSGEAPNQALLRILKETEFKKIKVLGSGAFGTVYKGLWIPEGEKVKIPVAIKELREATSPKANKEILDEAYVMASVDNPHVCRLLGICLTSTVQLITQLMPFGCLLDYVREHKDNIGSQYLLNWCVQIAKGMNYLEDRRLVHRDLAARNVLVKTPQHVKITDFGLAKLLGAEEKEYHAEGGKVPIKWMALESILHRIYTHQSDVWSYGVTVWELMTFGSKPYDGIPASEISSILEKGERLPQPPICTIDVYMIMVKCWMIDADSRPKFRELIIEFSKMARDPQRYLVIQGDERMHLPSPTDSNFYRALMDEEDMDDVVDADEYLIPQQGFFSSPSTSRTPLLSSLSATSNNSTVACIDRNGLQSCPIKEDSFLQRYSSDPTGALTEDSIDDTFLPVPEYINQSVPKRPAGSVQNPVYHNQPLNPAPSRDPHYQDPHSTAVGNPEYLNTVQPTCVNSTFDSPAHWAQKGSHQISLDNPDYQQDFFPKEAKPNGI

> <PDB ID(s) of Target Chain>
1M14,1M17,1XKK,1Z9I,2GS2,2GS6,2ITW,2ITX,2ITY,2J5E,2J5F,2J6M,2RF9,2RGP,3BEL,3GOP,3POZ,3VJO,3W2O,3W2P,3W2Q,3W2R,3W2S,3W32,3W33,4G5J,4I23,4JQ7,4JQ8,4JR3,4JRV,4LI5,4RJ4,4RJ5,4RJ6,4RJ7,4RJ8,4TKS,4WKQ,4WRG,4ZAU,5C8K,5C8M,5C8N,5CAL,5CAN,5CAO,5CAP,5CAQ,5CAS,5CAU,5CAV,5EDP,5EDQ,5EDR,5EM5,5EM6,5EM7,5EM8,5GNK,5HCX,5HCY,5HCZ,5HIB,5HIC,5UGB,5Y25,6D8E,6JZ0,6S89,6S8A,6VH4,6VHN,6VHP,7AEI,7AEM,7B85,7OXB,7SI1,7UKV,7ZYM,7ZYN,7ZYP,8A27,8A2A,8HY7

> <UniProt (SwissProt) Recommended Name of Target Chain>
Epidermal growth factor receptor

> <UniProt (SwissProt) Entry Name of Target Chain>
EGFR_HUMAN

> <UniProt (SwissProt) Primary ID of Target Chain>
P00533

> <UniProt (SwissProt) Secondary ID(s) of Target Chain>
O00688 O00732 P06268 Q14225 Q68GS5 Q92795 Q9BZS2 Q9GZX1 Q9H2C9 Q9H3C9 Q9UMD7 Q9UMD8 Q9UMG5

> <UniProt (SwissProt) Alternative ID(s) of Target Chain>


> <UniProt (TrEMBL) Submitted Name of Target Chain>


> <UniProt (TrEMBL) Entry Name of Target Chain>


> <UniProt (TrEMBL) Primary ID of Target Chain>


> <UniProt (TrEMBL) Secondary ID(s) of Target Chain>


> <UniProt (TrEMBL) Alternative ID(s) of Target Chain>


$$$$
Untitled Document-1
  Mrv0541 06191716202D          

 19 20  0  0  0  0            999 V2000
    7.1022   -4.7264    0.0000 C   0  0  0  0  0  0  0  0  0  0  0  0
    6.3877   -5.1389    0.0000 C   0  0  0  0  0  0  0  0  0  0  0  0
    6.3877   -5.9639    0.0000 C   0  0  0  0  0  0  0  0  0  0  0  0
    5.6733   -6.3767    0.0000 C   0  0  0  0  0  0  0  0  0  0  0  0
    4.9588   -5.9639    0.0000 C   0  0  0  0  0  0  0  0  0  0  0  0
    4.9588   -5.1389    0.0000 C   0  0  0  0  0  0  0  0  0  0  0  0
    5.6733   -4.7264    0.0000 C   0  0  0  0  0  0  0  0  0  0  0  0
    7.1022   -3.9014    0.0000 O   0  0  0  0  0  0  0  0  0  0  0  0
    7.8166   -5.1389    0.0000 N   0  0  0  0  0  0  0  0  0  0  0  0
    7.1022   -6.3764    0.0000 O   0  0  0  0  0  0  0  0  0  0  0  0
    8.5311   -4.7267    0.0000 C   0  0  0  0  0  0  0  0  0  0  0  0
    8.5311   -3.9017    0.0000 C   0  0  0  0  0  0  0  0  0  0  0  0
    9.2455   -3.4892    0.0000 C   0  0  0  0  0  0  0  0  0  0  0  0
    9.9600   -3.9017    0.0000 C   0  0  0  0  0  0  0  0  0  0  0  0
    9.9600   -4.7267    0.0000 C   0  0  0  0  0  0  0  0  0  0  0  0
    9.2455   -5.1392    0.0000 C   0  0  0  0  0  0  0  0  0  0  0  0
   10.6744   -3.4892    0.0000 Cl  0  0  0  0  0  0  0  0  0  0  0  0
    4.2444   -4.7264    0.0000 Br  0  0  0  0  0  0  0  0  0  0  0  0
    5.6733   -7.2017    0.0000 Br  0  0  0  0  0  0  0  0  0  0  0  0
  1  2  1  0  0  0  0
  2  3  4  0  0  0  0
  3  4  4  0  0  0  0
  4  5  4  0  0  0  0
  5  6  4  0  0  0  0
  6  7  4  0  0  0  0
  2  7  4  0  0  0  0
  1  8  2  0  0  0  0
  1  9  1  0  0  0  0
  3 10  1  0  0  0  0
 11 12  4  0  0  0  0
 12 13  4  0  0  0  0
 13 14  4  0  0  0  0
 14 15  4  0  0  0  0
 15 16  4  0  0  0  0
 11 16  4  0  0  0  0
 14 17  1  0  0  0  0
  9 11  1  0  0  0  0
  6 18  1  0  0  0  0
  4 19  1  0  0  0  0
M  END
> <From>
www.bindingDB.org

> <BindingDB Reactant_set_id>
408373

> <Ligand InChI>
InChI=1S/C13H8Br2ClNO2/c14-7-5-10(12(18)11(15)6-7)13(19)17-9-3-1-8(16)2-4-9/h1-6,18H,(H,17,19)

> <Ligand InChI Key>
YVVILFKWXBZXAA-UHFFFAOYSA-N

> <BindingDB MonomerID>
234328

> <BindingDB Ligand Name>
3,5-Dibromo-N-(4-chlorophenyl)-2-hydroxybenzamide (30)

> <Target Name>
Epidermal growth factor receptor [645-1186]

> <Target Source Organism According to Curator or DataSource>


> <Ki (nM)>


> <IC50 (nM)>
 12190

> <Kd (nM)>


> <EC50 (nM)>


> <kon (M-1-s-1)>


> <koff (s-1)>


> <pH>
7.4

> <Temp C>
25.00

> <Curation/DataSource>
Curated from the literature by BindingDB

> <Article DOI>
10.3109/14756361003671060

> <BindingDB Entry DOI>
10.7270/Q2XW4HPN

> <PMID>
20583855

> <PubChem AID>
aid1802974

> <Patent Number>


> <Authors>
Zhu, ZW; Shi, L; Ruan, XM; Yang, Y; Li, HQ; Xu, SP; Zhu, HL

> <Institution>
Nanjing University

> <Link to Ligand in BindingDB>
http://www.bindingdb.org/bind/chemsearch/marvin/MolStructure.jsp?monomerid=234328

> <Link to Ligand-Target Pair in BindingDB>
http://www.bindingdb.org/jsp/dbsearch/PrimarySearch_ki.jsp?energyterm=kJ/mole&tag=pol&polymerid=10043&target=Epidermal+growth+factor+receptor+%5B645-1186%5D&column=ki&startPg=0&Increment=50&submit=Search

> <Link to Ligand-Target Pair in BindingDB>
http://www.bindingdb.org/jsp/dbsearch/PrimarySearch_ki.jsp?energyterm=kJ/mole&tag=r21&monomerid=234328&enzyme=Epidermal+growth+factor+receptor+%5B645-1186%5D&column=ki&startPg=0&Increment=50&submit=Search

> <Ligand HET ID in PDB>


> <PDB ID(s) for Ligand-Target Complex>


> <PubChem CID of Ligand>
352408

> <PubChem SID of Ligand>
340094317

> <ChEBI ID of Ligand>


> <ChEMBL ID of Ligand>


> <DrugBank ID of Ligand>


> <IUPHAR_GRAC ID of Ligand>


> <KEGG ID of Ligand>


> <ZINC ID of Ligand>


> <Number of Protein Chains in Target (bigger than 1 implies a multichain complex)>
1

> <BindingDB Target Chain Sequence>
SIATGMVGALLLLLVVALGIGLFMRRRHIVRKRTLRRLLQERELVEPLTPSGEAPNQALLRILKETEFKKIKVLGSGAFGTVYKGLWIPEGEKVKIPVAIKELREATSPKANKEILDEAYVMASVDNPHVCRLLGICLTSTVQLITQLMPFGCLLDYVREHKDNIGSQYLLNWCVQIAKGMNYLEDRRLVHRDLAARNVLVKTPQHVKITDFGLAKLLGAEEKEYHAEGGKVPIKWMALESILHRIYTHQSDVWSYGVTVWELMTFGSKPYDGIPASEISSILEKGERLPQPPICTIDVYMIMVKCWMIDADSRPKFRELIIEFSKMARDPQRYLVIQGDERMHLPSPTDSNFYRALMDEEDMDDVVDADEYLIPQQGFFSSPSTSRTPLLSSLSATSNNSTVACIDRNGLQSCPIKEDSFLQRYSSDPTGALTEDSIDDTFLPVPEYINQSVPKRPAGSVQNPVYHNQPLNPAPSRDPHYQDPHSTAVGNPEYLNTVQPTCVNSTFDSPAHWAQKGSHQISLDNPDYQQDFFPKEAKPNGI

> <PDB ID(s) of Target Chain>
1M14,1M17,1XKK,1Z9I,2GS2,2GS6,2ITW,2ITX,2ITY,2J5E,2J5F,2J6M,2RF9,2RGP,3BEL,3GOP,3POZ,3VJO,3W2O,3W2P,3W2Q,3W2R,3W2S,3W32,3W33,4G5J,4I23,4JQ7,4JQ8,4JR3,4JRV,4LI5,4RJ4,4RJ5,4RJ6,4RJ7,4RJ8,4TKS,4WKQ,4WRG,4ZAU,5C8K,5C8M,5C8N,5CAL,5CAN,5CAO,5CAP,5CAQ,5CAS,5CAU,5CAV,5EDP,5EDQ,5EDR,5EM5,5EM6,5EM7,5EM8,5GNK,5HCX,5HCY,5HCZ,5HIB,5HIC,5UGB,5Y25,6D8E,6JZ0,6S89,6S8A,6VH4,6VHN,6VHP,7AEI,7AEM,7B85,7OXB,7SI1,7UKV,7ZYM,7ZYN,7ZYP,8A27,8A2A,8HY7

> <UniProt (SwissProt) Recommended Name of Target Chain>
Epidermal growth factor receptor

> <UniProt (SwissProt) Entry Name of Target Chain>
EGFR_HUMAN

> <UniProt (SwissProt) Primary ID of Target Chain>
P00533

> <UniProt (SwissProt) Secondary ID(s) of Target Chain>
O00688 O00732 P06268 Q14225 Q68GS5 Q92795 Q9BZS2 Q9GZX1 Q9H2C9 Q9H3C9 Q9UMD7 Q9UMD8 Q9UMG5

> <UniProt (SwissProt) Alternative ID(s) of Target Chain>


> <UniProt (TrEMBL) Submitted Name of Target Chain>


> <UniProt (TrEMBL) Entry Name of Target Chain>


> <UniProt (TrEMBL) Primary ID of Target Chain>


> <UniProt (TrEMBL) Secondary ID(s) of Target Chain>


> <UniProt (TrEMBL) Alternative ID(s) of Target Chain>


$$$$
Untitled Document-1
  Mrv0541 06191716202D          

 18 19  0  0  0  0            999 V2000
    7.0067   -5.1375    0.0000 C   0  0  0  0  0  0  0  0  0  0  0  0
    6.2923   -5.5500    0.0000 C   0  0  0  0  0  0  0  0  0  0  0  0
    6.2923   -6.3750    0.0000 C   0  0  0  0  0  0  0  0  0  0  0  0
    5.5778   -6.7875    0.0000 C   0  0  0  0  0  0  0  0  0  0  0  0
    4.8634   -6.3750    0.0000 C   0  0  0  0  0  0  0  0  0  0  0  0
    4.8634   -5.5500    0.0000 C   0  0  0  0  0  0  0  0  0  0  0  0
    5.5778   -5.1375    0.0000 C   0  0  0  0  0  0  0  0  0  0  0  0
    7.0067   -4.3125    0.0000 O   0  0  0  0  0  0  0  0  0  0  0  0
    7.7212   -5.5500    0.0000 N   0  0  0  0  0  0  0  0  0  0  0  0
    4.1487   -5.1375    0.0000 I   0  0  0  0  0  0  0  0  0  0  0  0
    7.0067   -6.7875    0.0000 O   0  0  0  0  0  0  0  0  0  0  0  0
    8.4356   -5.1375    0.0000 C   0  0  0  0  0  0  0  0  0  0  0  0
    8.4356   -4.3125    0.0000 C   0  0  0  0  0  0  0  0  0  0  0  0
    9.1501   -3.9000    0.0000 C   0  0  0  0  0  0  0  0  0  0  0  0
    9.8645   -4.3125    0.0000 C   0  0  0  0  0  0  0  0  0  0  0  0
    9.8645   -5.1375    0.0000 C   0  0  0  0  0  0  0  0  0  0  0  0
    9.1501   -5.5500    0.0000 C   0  0  0  0  0  0  0  0  0  0  0  0
   10.5790   -3.9000    0.0000 Cl  0  0  0  0  0  0  0  0  0  0  0  0
  1  2  1  0  0  0  0
  2  3  4  0  0  0  0
  3  4  4  0  0  0  0
  4  5  4  0  0  0  0
  5  6  4  0  0  0  0
  6  7  4  0  0  0  0
  2  7  4  0  0  0  0
  1  8  2  0  0  0  0
  1  9  1  0  0  0  0
  6 10  1  0  0  0  0
  3 11  1  0  0  0  0
 12 13  4  0  0  0  0
 13 14  4  0  0  0  0
 14 15  4  0  0  0  0
 15 16  4  0  0  0  0
 16 17  4  0  0  0  0
 12 17  4  0  0  0  0
 15 18  1  0  0  0  0
  9 12  1  0  0  0  0
M  END
> <From>
www.bindingDB.org

> <BindingDB Reactant_set_id>
408367

> <Ligand InChI>
InChI=1S/C13H9ClINO2/c14-8-1-4-10(5-2-8)16-13(18)11-7-9(15)3-6-12(11)17/h1-7,17H,(H,16,18)

> <Ligand InChI Key>
HXDYOSSLXZJTCX-UHFFFAOYSA-N

> <BindingDB MonomerID>
234322

> <BindingDB Ligand Name>
N-(4-chlorophenyl)-2-hydroxy-5-iodobenzamide (24)

> <Target Name>
Epidermal growth factor receptor [645-1186]

> <Target Source Organism According to Curator or DataSource>


> <Ki (nM)>


> <IC50 (nM)>
 13040

> <Kd (nM)>


> <EC50 (nM)>


> <kon (M-1-s-1)>


> <koff (s-1)>


> <pH>
7.4

> <Temp C>
25.00

> <Curation/DataSource>
Curated from the literature by BindingDB

> <Article DOI>
10.3109/14756361003671060

> <BindingDB Entry DOI>
10.7270/Q2XW4HPN

> <PMID>
20583855

> <PubChem AID>
aid1802974

> <Patent Number>


> <Authors>
Zhu, ZW; Shi, L; Ruan, XM; Yang, Y; Li, HQ; Xu, SP; Zhu, HL

> <Institution>
Nanjing University

> <Link to Ligand in BindingDB>
http://www.bindingdb.org/bind/chemsearch/marvin/MolStructure.jsp?monomerid=234322

> <Link to Ligand-Target Pair in BindingDB>
http://www.bindingdb.org/jsp/dbsearch/PrimarySearch_ki.jsp?energyterm=kJ/mole&tag=pol&polymerid=10043&target=Epidermal+growth+factor+receptor+%5B645-1186%5D&column=ki&startPg=0&Increment=50&submit=Search

> <Link to Ligand-Target Pair in BindingDB>
http://www.bindingdb.org/jsp/dbsearch/PrimarySearch_ki.jsp?energyterm=kJ/mole&tag=r21&monomerid=234322&enzyme=Epidermal+growth+factor+receptor+%5B645-1186%5D&column=ki&startPg=0&Increment=50&submit=Search

> <Ligand HET ID in PDB>


> <PDB ID(s) for Ligand-Target Complex>


> <PubChem CID of Ligand>
10248786

> <PubChem SID of Ligand>
340094311

> <ChEBI ID of Ligand>


> <ChEMBL ID of Ligand>


> <DrugBank ID of Ligand>


> <IUPHAR_GRAC ID of Ligand>


> <KEGG ID of Ligand>


> <ZINC ID of Ligand>


> <Number of Protein Chains in Target (bigger than 1 implies a multichain complex)>
1

> <BindingDB Target Chain Sequence>
SIATGMVGALLLLLVVALGIGLFMRRRHIVRKRTLRRLLQERELVEPLTPSGEAPNQALLRILKETEFKKIKVLGSGAFGTVYKGLWIPEGEKVKIPVAIKELREATSPKANKEILDEAYVMASVDNPHVCRLLGICLTSTVQLITQLMPFGCLLDYVREHKDNIGSQYLLNWCVQIAKGMNYLEDRRLVHRDLAARNVLVKTPQHVKITDFGLAKLLGAEEKEYHAEGGKVPIKWMALESILHRIYTHQSDVWSYGVTVWELMTFGSKPYDGIPASEISSILEKGERLPQPPICTIDVYMIMVKCWMIDADSRPKFRELIIEFSKMARDPQRYLVIQGDERMHLPSPTDSNFYRALMDEEDMDDVVDADEYLIPQQGFFSSPSTSRTPLLSSLSATSNNSTVACIDRNGLQSCPIKEDSFLQRYSSDPTGALTEDSIDDTFLPVPEYINQSVPKRPAGSVQNPVYHNQPLNPAPSRDPHYQDPHSTAVGNPEYLNTVQPTCVNSTFDSPAHWAQKGSHQISLDNPDYQQDFFPKEAKPNGI

> <PDB ID(s) of Target Chain>
1M14,1M17,1XKK,1Z9I,2GS2,2GS6,2ITW,2ITX,2ITY,2J5E,2J5F,2J6M,2RF9,2RGP,3BEL,3GOP,3POZ,3VJO,3W2O,3W2P,3W2Q,3W2R,3W2S,3W32,3W33,4G5J,4I23,4JQ7,4JQ8,4JR3,4JRV,4LI5,4RJ4,4RJ5,4RJ6,4RJ7,4RJ8,4TKS,4WKQ,4WRG,4ZAU,5C8K,5C8M,5C8N,5CAL,5CAN,5CAO,5CAP,5CAQ,5CAS,5CAU,5CAV,5EDP,5EDQ,5EDR,5EM5,5EM6,5EM7,5EM8,5GNK,5HCX,5HCY,5HCZ,5HIB,5HIC,5UGB,5Y25,6D8E,6JZ0,6S89,6S8A,6VH4,6VHN,6VHP,7AEI,7AEM,7B85,7OXB,7SI1,7UKV,7ZYM,7ZYN,7ZYP,8A27,8A2A,8HY7

> <UniProt (SwissProt) Recommended Name of Target Chain>
Epidermal growth factor receptor

> <UniProt (SwissProt) Entry Name of Target Chain>
EGFR_HUMAN

> <UniProt (SwissProt) Primary ID of Target Chain>
P00533

> <UniProt (SwissProt) Secondary ID(s) of Target Chain>
O00688 O00732 P06268 Q14225 Q68GS5 Q92795 Q9BZS2 Q9GZX1 Q9H2C9 Q9H3C9 Q9UMD7 Q9UMD8 Q9UMG5

> <UniProt (SwissProt) Alternative ID(s) of Target Chain>


> <UniProt (TrEMBL) Submitted Name of Target Chain>


> <UniProt (TrEMBL) Entry Name of Target Chain>


> <UniProt (TrEMBL) Primary ID of Target Chain>


> <UniProt (TrEMBL) Secondary ID(s) of Target Chain>


> <UniProt (TrEMBL) Alternative ID(s) of Target Chain>


$$$$
Untitled Document-1
  Mrv0541 06191716202D          

 18 19  0  0  0  0            999 V2000
    6.9949   -5.1417    0.0000 C   0  0  0  0  0  0  0  0  0  0  0  0
    6.2805   -5.5542    0.0000 C   0  0  0  0  0  0  0  0  0  0  0  0
    6.2805   -6.3792    0.0000 C   0  0  0  0  0  0  0  0  0  0  0  0
    5.5660   -6.7917    0.0000 C   0  0  0  0  0  0  0  0  0  0  0  0
    4.8516   -6.3792    0.0000 C   0  0  0  0  0  0  0  0  0  0  0  0
    4.8516   -5.5542    0.0000 C   0  0  0  0  0  0  0  0  0  0  0  0
    5.5660   -5.1417    0.0000 C   0  0  0  0  0  0  0  0  0  0  0  0
    6.9949   -4.3167    0.0000 O   0  0  0  0  0  0  0  0  0  0  0  0
    7.7094   -5.5542    0.0000 N   0  0  0  0  0  0  0  0  0  0  0  0
    4.1371   -5.1417    0.0000 I   0  0  0  0  0  0  0  0  0  0  0  0
    6.9949   -6.7917    0.0000 O   0  0  0  0  0  0  0  0  0  0  0  0
    8.4238   -5.1417    0.0000 C   0  0  0  0  0  0  0  0  0  0  0  0
    8.4238   -4.3167    0.0000 C   0  0  0  0  0  0  0  0  0  0  0  0
    9.1383   -3.9042    0.0000 C   0  0  0  0  0  0  0  0  0  0  0  0
    9.8530   -4.3167    0.0000 C   0  0  0  0  0  0  0  0  0  0  0  0
    9.8530   -5.1417    0.0000 C   0  0  0  0  0  0  0  0  0  0  0  0
    9.1383   -5.5542    0.0000 C   0  0  0  0  0  0  0  0  0  0  0  0
   10.5674   -3.9042    0.0000 Br  0  0  0  0  0  0  0  0  0  0  0  0
  1  2  1  0  0  0  0
  2  3  4  0  0  0  0
  3  4  4  0  0  0  0
  4  5  4  0  0  0  0
  5  6  4  0  0  0  0
  6  7  4  0  0  0  0
  2  7  4  0  0  0  0
  1  8  2  0  0  0  0
  1  9  1  0  0  0  0
  6 10  1  0  0  0  0
  3 11  1  0  0  0  0
 12 13  4  0  0  0  0
 13 14  4  0  0  0  0
 14 15  4  0  0  0  0
 15 16  4  0  0  0  0
 16 17  4  0  0  0  0
 12 17  4  0  0  0  0
 15 18  1  0  0  0  0
  9 12  1  0  0  0  0
M  END
> <From>
www.bindingDB.org

> <BindingDB Reactant_set_id>
408368

> <Ligand InChI>
InChI=1S/C13H9BrINO2/c14-8-1-4-10(5-2-8)16-13(18)11-7-9(15)3-6-12(11)17/h1-7,17H,(H,16,18)

> <Ligand InChI Key>
ODJWEOWHYPZENX-UHFFFAOYSA-N

> <BindingDB MonomerID>
234323

> <BindingDB Ligand Name>
N-(4-bromophenyl)-2-hydroxy-5-iodobenzamide (25)

> <Target Name>
Epidermal growth factor receptor [645-1186]

> <Target Source Organism According to Curator or DataSource>


> <Ki (nM)>


> <IC50 (nM)>
 13700

> <Kd (nM)>


> <EC50 (nM)>


> <kon (M-1-s-1)>


> <koff (s-1)>


> <pH>
7.4

> <Temp C>
25.00

> <Curation/DataSource>
Curated from the literature by BindingDB

> <Article DOI>
10.3109/14756361003671060

> <BindingDB Entry DOI>
10.7270/Q2XW4HPN

> <PMID>
20583855

> <PubChem AID>
aid1802974

> <Patent Number>


> <Authors>
Zhu, ZW; Shi, L; Ruan, XM; Yang, Y; Li, HQ; Xu, SP; Zhu, HL

> <Institution>
Nanjing University

> <Link to Ligand in BindingDB>
http://www.bindingdb.org/bind/chemsearch/marvin/MolStructure.jsp?monomerid=234323

> <Link to Ligand-Target Pair in BindingDB>
http://www.bindingdb.org/jsp/dbsearch/PrimarySearch_ki.jsp?energyterm=kJ/mole&tag=pol&polymerid=10043&target=Epidermal+growth+factor+receptor+%5B645-1186%5D&column=ki&startPg=0&Increment=50&submit=Search

> <Link to Ligand-Target Pair in BindingDB>
http://www.bindingdb.org/jsp/dbsearch/PrimarySearch_ki.jsp?energyterm=kJ/mole&tag=r21&monomerid=234323&enzyme=Epidermal+growth+factor+receptor+%5B645-1186%5D&column=ki&startPg=0&Increment=50&submit=Search

> <Ligand HET ID in PDB>


> <PDB ID(s) for Ligand-Target Complex>


> <PubChem CID of Ligand>
11998374

> <PubChem SID of Ligand>
340094312

> <ChEBI ID of Ligand>


> <ChEMBL ID of Ligand>


> <DrugBank ID of Ligand>


> <IUPHAR_GRAC ID of Ligand>


> <KEGG ID of Ligand>


> <ZINC ID of Ligand>


> <Number of Protein Chains in Target (bigger than 1 implies a multichain complex)>
1

> <BindingDB Target Chain Sequence>
SIATGMVGALLLLLVVALGIGLFMRRRHIVRKRTLRRLLQERELVEPLTPSGEAPNQALLRILKETEFKKIKVLGSGAFGTVYKGLWIPEGEKVKIPVAIKELREATSPKANKEILDEAYVMASVDNPHVCRLLGICLTSTVQLITQLMPFGCLLDYVREHKDNIGSQYLLNWCVQIAKGMNYLEDRRLVHRDLAARNVLVKTPQHVKITDFGLAKLLGAEEKEYHAEGGKVPIKWMALESILHRIYTHQSDVWSYGVTVWELMTFGSKPYDGIPASEISSILEKGERLPQPPICTIDVYMIMVKCWMIDADSRPKFRELIIEFSKMARDPQRYLVIQGDERMHLPSPTDSNFYRALMDEEDMDDVVDADEYLIPQQGFFSSPSTSRTPLLSSLSATSNNSTVACIDRNGLQSCPIKEDSFLQRYSSDPTGALTEDSIDDTFLPVPEYINQSVPKRPAGSVQNPVYHNQPLNPAPSRDPHYQDPHSTAVGNPEYLNTVQPTCVNSTFDSPAHWAQKGSHQISLDNPDYQQDFFPKEAKPNGI

> <PDB ID(s) of Target Chain>
1M14,1M17,1XKK,1Z9I,2GS2,2GS6,2ITW,2ITX,2ITY,2J5E,2J5F,2J6M,2RF9,2RGP,3BEL,3GOP,3POZ,3VJO,3W2O,3W2P,3W2Q,3W2R,3W2S,3W32,3W33,4G5J,4I23,4JQ7,4JQ8,4JR3,4JRV,4LI5,4RJ4,4RJ5,4RJ6,4RJ7,4RJ8,4TKS,4WKQ,4WRG,4ZAU,5C8K,5C8M,5C8N,5CAL,5CAN,5CAO,5CAP,5CAQ,5CAS,5CAU,5CAV,5EDP,5EDQ,5EDR,5EM5,5EM6,5EM7,5EM8,5GNK,5HCX,5HCY,5HCZ,5HIB,5HIC,5UGB,5Y25,6D8E,6JZ0,6S89,6S8A,6VH4,6VHN,6VHP,7AEI,7AEM,7B85,7OXB,7SI1,7UKV,7ZYM,7ZYN,7ZYP,8A27,8A2A,8HY7

> <UniProt (SwissProt) Recommended Name of Target Chain>
Epidermal growth factor receptor

> <UniProt (SwissProt) Entry Name of Target Chain>
EGFR_HUMAN

> <UniProt (SwissProt) Primary ID of Target Chain>
P00533

> <UniProt (SwissProt) Secondary ID(s) of Target Chain>
O00688 O00732 P06268 Q14225 Q68GS5 Q92795 Q9BZS2 Q9GZX1 Q9H2C9 Q9H3C9 Q9UMD7 Q9UMD8 Q9UMG5

> <UniProt (SwissProt) Alternative ID(s) of Target Chain>


> <UniProt (TrEMBL) Submitted Name of Target Chain>


> <UniProt (TrEMBL) Entry Name of Target Chain>


> <UniProt (TrEMBL) Primary ID of Target Chain>


> <UniProt (TrEMBL) Secondary ID(s) of Target Chain>


> <UniProt (TrEMBL) Alternative ID(s) of Target Chain>


$$$$
Untitled Document-1
  Mrv0541 06191716202D          

 17 18  0  0  0  0            999 V2000
    7.0678   -5.1375    0.0000 C   0  0  0  0  0  0  0  0  0  0  0  0
    6.3533   -5.5500    0.0000 C   0  0  0  0  0  0  0  0  0  0  0  0
    6.3533   -6.3750    0.0000 C   0  0  0  0  0  0  0  0  0  0  0  0
    5.6389   -6.7875    0.0000 C   0  0  0  0  0  0  0  0  0  0  0  0
    4.9244   -6.3750    0.0000 C   0  0  0  0  0  0  0  0  0  0  0  0
    4.9244   -5.5500    0.0000 C   0  0  0  0  0  0  0  0  0  0  0  0
    5.6389   -5.1375    0.0000 C   0  0  0  0  0  0  0  0  0  0  0  0
    7.0678   -4.3125    0.0000 O   0  0  0  0  0  0  0  0  0  0  0  0
    7.7822   -5.5500    0.0000 N   0  0  0  0  0  0  0  0  0  0  0  0
    7.0678   -6.7875    0.0000 O   0  0  0  0  0  0  0  0  0  0  0  0
    8.4967   -5.1375    0.0000 C   0  0  0  0  0  0  0  0  0  0  0  0
    8.4967   -4.3125    0.0000 C   0  0  0  0  0  0  0  0  0  0  0  0
    9.2111   -3.9000    0.0000 C   0  0  0  0  0  0  0  0  0  0  0  0
    9.9256   -4.3125    0.0000 C   0  0  0  0  0  0  0  0  0  0  0  0
    9.9256   -5.1375    0.0000 C   0  0  0  0  0  0  0  0  0  0  0  0
    9.2111   -5.5500    0.0000 C   0  0  0  0  0  0  0  0  0  0  0  0
    7.7822   -3.9000    0.0000 Cl  0  0  0  0  0  0  0  0  0  0  0  0
  1  2  1  0  0  0  0
  2  3  4  0  0  0  0
  3  4  4  0  0  0  0
  4  5  4  0  0  0  0
  5  6  4  0  0  0  0
  6  7  4  0  0  0  0
  2  7  4  0  0  0  0
  1  8  2  0  0  0  0
  1  9  1  0  0  0  0
  3 10  1  0  0  0  0
 11 12  4  0  0  0  0
 12 13  4  0  0  0  0
 13 14  4  0  0  0  0
 14 15  4  0  0  0  0
 15 16  4  0  0  0  0
 11 16  4  0  0  0  0
 12 17  1  0  0  0  0
  9 11  1  0  0  0  0
M  END
> <From>
www.bindingDB.org

> <BindingDB Reactant_set_id>
408346

> <Ligand InChI>
InChI=1S/C13H10ClNO2/c14-10-6-2-3-7-11(10)15-13(17)9-5-1-4-8-12(9)16/h1-8,16H,(H,15,17)

> <Ligand InChI Key>
KFIQAGIXMXTUIM-UHFFFAOYSA-N

> <BindingDB MonomerID>
234302

> <BindingDB Ligand Name>
N-(2-chlorophenyl)-2-hydroxybenzamide (3)

> <Target Name>
Epidermal growth factor receptor [645-1186]

> <Target Source Organism According to Curator or DataSource>


> <Ki (nM)>


> <IC50 (nM)>
 14180

> <Kd (nM)>


> <EC50 (nM)>


> <kon (M-1-s-1)>


> <koff (s-1)>


> <pH>
7.4

> <Temp C>
25.00

> <Curation/DataSource>
Curated from the literature by BindingDB

> <Article DOI>
10.3109/14756361003671060

> <BindingDB Entry DOI>
10.7270/Q2XW4HPN

> <PMID>
20583855

> <PubChem AID>
aid1802974

> <Patent Number>


> <Authors>
Zhu, ZW; Shi, L; Ruan, XM; Yang, Y; Li, HQ; Xu, SP; Zhu, HL

> <Institution>
Nanjing University

> <Link to Ligand in BindingDB>
http://www.bindingdb.org/bind/chemsearch/marvin/MolStructure.jsp?monomerid=234302

> <Link to Ligand-Target Pair in BindingDB>
http://www.bindingdb.org/jsp/dbsearch/PrimarySearch_ki.jsp?energyterm=kJ/mole&tag=pol&polymerid=10043&target=Epidermal+growth+factor+receptor+%5B645-1186%5D&column=ki&startPg=0&Increment=50&submit=Search

> <Link to Ligand-Target Pair in BindingDB>
http://www.bindingdb.org/jsp/dbsearch/PrimarySearch_ki.jsp?energyterm=kJ/mole&tag=r21&monomerid=234302&enzyme=Epidermal+growth+factor+receptor+%5B645-1186%5D&column=ki&startPg=0&Increment=50&submit=Search

> <Ligand HET ID in PDB>


> <PDB ID(s) for Ligand-Target Complex>


> <PubChem CID of Ligand>
247956

> <PubChem SID of Ligand>
340094291

> <ChEBI ID of Ligand>


> <ChEMBL ID of Ligand>


> <DrugBank ID of Ligand>


> <IUPHAR_GRAC ID of Ligand>


> <KEGG ID of Ligand>


> <ZINC ID of Ligand>


> <Number of Protein Chains in Target (bigger than 1 implies a multichain complex)>
1

> <BindingDB Target Chain Sequence>
SIATGMVGALLLLLVVALGIGLFMRRRHIVRKRTLRRLLQERELVEPLTPSGEAPNQALLRILKETEFKKIKVLGSGAFGTVYKGLWIPEGEKVKIPVAIKELREATSPKANKEILDEAYVMASVDNPHVCRLLGICLTSTVQLITQLMPFGCLLDYVREHKDNIGSQYLLNWCVQIAKGMNYLEDRRLVHRDLAARNVLVKTPQHVKITDFGLAKLLGAEEKEYHAEGGKVPIKWMALESILHRIYTHQSDVWSYGVTVWELMTFGSKPYDGIPASEISSILEKGERLPQPPICTIDVYMIMVKCWMIDADSRPKFRELIIEFSKMARDPQRYLVIQGDERMHLPSPTDSNFYRALMDEEDMDDVVDADEYLIPQQGFFSSPSTSRTPLLSSLSATSNNSTVACIDRNGLQSCPIKEDSFLQRYSSDPTGALTEDSIDDTFLPVPEYINQSVPKRPAGSVQNPVYHNQPLNPAPSRDPHYQDPHSTAVGNPEYLNTVQPTCVNSTFDSPAHWAQKGSHQISLDNPDYQQDFFPKEAKPNGI

> <PDB ID(s) of Target Chain>
1M14,1M17,1XKK,1Z9I,2GS2,2GS6,2ITW,2ITX,2ITY,2J5E,2J5F,2J6M,2RF9,2RGP,3BEL,3GOP,3POZ,3VJO,3W2O,3W2P,3W2Q,3W2R,3W2S,3W32,3W33,4G5J,4I23,4JQ7,4JQ8,4JR3,4JRV,4LI5,4RJ4,4RJ5,4RJ6,4RJ7,4RJ8,4TKS,4WKQ,4WRG,4ZAU,5C8K,5C8M,5C8N,5CAL,5CAN,5CAO,5CAP,5CAQ,5CAS,5CAU,5CAV,5EDP,5EDQ,5EDR,5EM5,5EM6,5EM7,5EM8,5GNK,5HCX,5HCY,5HCZ,5HIB,5HIC,5UGB,5Y25,6D8E,6JZ0,6S89,6S8A,6VH4,6VHN,6VHP,7AEI,7AEM,7B85,7OXB,7SI1,7UKV,7ZYM,7ZYN,7ZYP,8A27,8A2A,8HY7

> <UniProt (SwissProt) Recommended Name of Target Chain>
Epidermal growth factor receptor

> <UniProt (SwissProt) Entry Name of Target Chain>
EGFR_HUMAN

> <UniProt (SwissProt) Primary ID of Target Chain>
P00533

> <UniProt (SwissProt) Secondary ID(s) of Target Chain>
O00688 O00732 P06268 Q14225 Q68GS5 Q92795 Q9BZS2 Q9GZX1 Q9H2C9 Q9H3C9 Q9UMD7 Q9UMD8 Q9UMG5

> <UniProt (SwissProt) Alternative ID(s) of Target Chain>


> <UniProt (TrEMBL) Submitted Name of Target Chain>


> <UniProt (TrEMBL) Entry Name of Target Chain>


> <UniProt (TrEMBL) Primary ID of Target Chain>


> <UniProt (TrEMBL) Secondary ID(s) of Target Chain>


> <UniProt (TrEMBL) Alternative ID(s) of Target Chain>


$$$$
Untitled Document-1
  Mrv0541 06191716202D          

 17 18  0  0  0  0            999 V2000
    7.0678   -5.1417    0.0000 C   0  0  0  0  0  0  0  0  0  0  0  0
    6.3533   -5.5542    0.0000 C   0  0  0  0  0  0  0  0  0  0  0  0
    6.3533   -6.3792    0.0000 C   0  0  0  0  0  0  0  0  0  0  0  0
    5.6389   -6.7917    0.0000 C   0  0  0  0  0  0  0  0  0  0  0  0
    4.9244   -6.3792    0.0000 C   0  0  0  0  0  0  0  0  0  0  0  0
    4.9244   -5.5542    0.0000 C   0  0  0  0  0  0  0  0  0  0  0  0
    5.6389   -5.1417    0.0000 C   0  0  0  0  0  0  0  0  0  0  0  0
    7.0678   -4.3167    0.0000 O   0  0  0  0  0  0  0  0  0  0  0  0
    7.7822   -5.5542    0.0000 N   0  0  0  0  0  0  0  0  0  0  0  0
    7.0678   -6.7917    0.0000 O   0  0  0  0  0  0  0  0  0  0  0  0
    8.4967   -5.1417    0.0000 C   0  0  0  0  0  0  0  0  0  0  0  0
    8.4967   -4.3167    0.0000 C   0  0  0  0  0  0  0  0  0  0  0  0
    9.2111   -3.9042    0.0000 C   0  0  0  0  0  0  0  0  0  0  0  0
    9.9256   -4.3167    0.0000 C   0  0  0  0  0  0  0  0  0  0  0  0
    9.9256   -5.1417    0.0000 C   0  0  0  0  0  0  0  0  0  0  0  0
    9.2111   -5.5542    0.0000 C   0  0  0  0  0  0  0  0  0  0  0  0
    7.7822   -3.9042    0.0000 Br  0  0  0  0  0  0  0  0  0  0  0  0
  1  2  1  0  0  0  0
  2  3  4  0  0  0  0
  3  4  4  0  0  0  0
  4  5  4  0  0  0  0
  5  6  4  0  0  0  0
  6  7  4  0  0  0  0
  2  7  4  0  0  0  0
  1  8  2  0  0  0  0
  1  9  1  0  0  0  0
  3 10  1  0  0  0  0
 11 12  4  0  0  0  0
 12 13  4  0  0  0  0
 13 14  4  0  0  0  0
 14 15  4  0  0  0  0
 15 16  4  0  0  0  0
 11 16  4  0  0  0  0
 12 17  1  0  0  0  0
  9 11  1  0  0  0  0
M  END
> <From>
www.bindingDB.org

> <BindingDB Reactant_set_id>
408347

> <Ligand InChI>
InChI=1S/C13H10BrNO2/c14-10-6-2-3-7-11(10)15-13(17)9-5-1-4-8-12(9)16/h1-8,16H,(H,15,17)

> <Ligand InChI Key>
UUVHVGDXYGUCJM-UHFFFAOYSA-N

> <BindingDB MonomerID>
234303

> <BindingDB Ligand Name>
N-(2-bromophenyl)-2-hydroxybenzamide (4)

> <Target Name>
Epidermal growth factor receptor [645-1186]

> <Target Source Organism According to Curator or DataSource>


> <Ki (nM)>


> <IC50 (nM)>
 21920

> <Kd (nM)>


> <EC50 (nM)>


> <kon (M-1-s-1)>


> <koff (s-1)>


> <pH>
7.4

> <Temp C>
25.00

> <Curation/DataSource>
Curated from the literature by BindingDB

> <Article DOI>
10.3109/14756361003671060

> <BindingDB Entry DOI>
10.7270/Q2XW4HPN

> <PMID>
20583855

> <PubChem AID>
aid1802974

> <Patent Number>


> <Authors>
Zhu, ZW; Shi, L; Ruan, XM; Yang, Y; Li, HQ; Xu, SP; Zhu, HL

> <Institution>
Nanjing University

> <Link to Ligand in BindingDB>
http://www.bindingdb.org/bind/chemsearch/marvin/MolStructure.jsp?monomerid=234303

> <Link to Ligand-Target Pair in BindingDB>
http://www.bindingdb.org/jsp/dbsearch/PrimarySearch_ki.jsp?energyterm=kJ/mole&tag=pol&polymerid=10043&target=Epidermal+growth+factor+receptor+%5B645-1186%5D&column=ki&startPg=0&Increment=50&submit=Search

> <Link to Ligand-Target Pair in BindingDB>
http://www.bindingdb.org/jsp/dbsearch/PrimarySearch_ki.jsp?energyterm=kJ/mole&tag=r21&monomerid=234303&enzyme=Epidermal+growth+factor+receptor+%5B645-1186%5D&column=ki&startPg=0&Increment=50&submit=Search

> <Ligand HET ID in PDB>


> <PDB ID(s) for Ligand-Target Complex>


> <PubChem CID of Ligand>
2412582

> <PubChem SID of Ligand>
340094292

> <ChEBI ID of Ligand>


> <ChEMBL ID of Ligand>


> <DrugBank ID of Ligand>


> <IUPHAR_GRAC ID of Ligand>


> <KEGG ID of Ligand>


> <ZINC ID of Ligand>


> <Number of Protein Chains in Target (bigger than 1 implies a multichain complex)>
1

> <BindingDB Target Chain Sequence>
SIATGMVGALLLLLVVALGIGLFMRRRHIVRKRTLRRLLQERELVEPLTPSGEAPNQALLRILKETEFKKIKVLGSGAFGTVYKGLWIPEGEKVKIPVAIKELREATSPKANKEILDEAYVMASVDNPHVCRLLGICLTSTVQLITQLMPFGCLLDYVREHKDNIGSQYLLNWCVQIAKGMNYLEDRRLVHRDLAARNVLVKTPQHVKITDFGLAKLLGAEEKEYHAEGGKVPIKWMALESILHRIYTHQSDVWSYGVTVWELMTFGSKPYDGIPASEISSILEKGERLPQPPICTIDVYMIMVKCWMIDADSRPKFRELIIEFSKMARDPQRYLVIQGDERMHLPSPTDSNFYRALMDEEDMDDVVDADEYLIPQQGFFSSPSTSRTPLLSSLSATSNNSTVACIDRNGLQSCPIKEDSFLQRYSSDPTGALTEDSIDDTFLPVPEYINQSVPKRPAGSVQNPVYHNQPLNPAPSRDPHYQDPHSTAVGNPEYLNTVQPTCVNSTFDSPAHWAQKGSHQISLDNPDYQQDFFPKEAKPNGI

> <PDB ID(s) of Target Chain>
1M14,1M17,1XKK,1Z9I,2GS2,2GS6,2ITW,2ITX,2ITY,2J5E,2J5F,2J6M,2RF9,2RGP,3BEL,3GOP,3POZ,3VJO,3W2O,3W2P,3W2Q,3W2R,3W2S,3W32,3W33,4G5J,4I23,4JQ7,4JQ8,4JR3,4JRV,4LI5,4RJ4,4RJ5,4RJ6,4RJ7,4RJ8,4TKS,4WKQ,4WRG,4ZAU,5C8K,5C8M,5C8N,5CAL,5CAN,5CAO,5CAP,5CAQ,5CAS,5CAU,5CAV,5EDP,5EDQ,5EDR,5EM5,5EM6,5EM7,5EM8,5GNK,5HCX,5HCY,5HCZ,5HIB,5HIC,5UGB,5Y25,6D8E,6JZ0,6S89,6S8A,6VH4,6VHN,6VHP,7AEI,7AEM,7B85,7OXB,7SI1,7UKV,7ZYM,7ZYN,7ZYP,8A27,8A2A,8HY7

> <UniProt (SwissProt) Recommended Name of Target Chain>
Epidermal growth factor receptor

> <UniProt (SwissProt) Entry Name of Target Chain>
EGFR_HUMAN

> <UniProt (SwissProt) Primary ID of Target Chain>
P00533

> <UniProt (SwissProt) Secondary ID(s) of Target Chain>
O00688 O00732 P06268 Q14225 Q68GS5 Q92795 Q9BZS2 Q9GZX1 Q9H2C9 Q9H3C9 Q9UMD7 Q9UMD8 Q9UMG5

> <UniProt (SwissProt) Alternative ID(s) of Target Chain>


> <UniProt (TrEMBL) Submitted Name of Target Chain>


> <UniProt (TrEMBL) Entry Name of Target Chain>


> <UniProt (TrEMBL) Primary ID of Target Chain>


> <UniProt (TrEMBL) Secondary ID(s) of Target Chain>


> <UniProt (TrEMBL) Alternative ID(s) of Target Chain>


$$$$
Untitled Document-1
  Mrv0541 06191716202D          

 18 19  0  0  0  0            999 V2000
    7.4217   -5.1417    0.0000 C   0  0  0  0  0  0  0  0  0  0  0  0
    6.7070   -5.5542    0.0000 C   0  0  0  0  0  0  0  0  0  0  0  0
    6.7070   -6.3792    0.0000 C   0  0  0  0  0  0  0  0  0  0  0  0
    5.9925   -6.7917    0.0000 C   0  0  0  0  0  0  0  0  0  0  0  0
    5.2781   -6.3792    0.0000 C   0  0  0  0  0  0  0  0  0  0  0  0
    5.2781   -5.5542    0.0000 C   0  0  0  0  0  0  0  0  0  0  0  0
    5.9925   -5.1417    0.0000 C   0  0  0  0  0  0  0  0  0  0  0  0
    7.4217   -4.3167    0.0000 O   0  0  0  0  0  0  0  0  0  0  0  0
    8.1362   -5.5542    0.0000 N   0  0  0  0  0  0  0  0  0  0  0  0
    4.5636   -6.7917    0.0000 C   0  0  0  0  0  0  0  0  0  0  0  0
    7.4217   -6.7917    0.0000 O   0  0  0  0  0  0  0  0  0  0  0  0
    8.8506   -5.1417    0.0000 C   0  0  0  0  0  0  0  0  0  0  0  0
    8.8506   -4.3167    0.0000 C   0  0  0  0  0  0  0  0  0  0  0  0
    9.5651   -3.9042    0.0000 C   0  0  0  0  0  0  0  0  0  0  0  0
   10.2795   -4.3167    0.0000 C   0  0  0  0  0  0  0  0  0  0  0  0
   10.2795   -5.1417    0.0000 C   0  0  0  0  0  0  0  0  0  0  0  0
    9.5651   -5.5542    0.0000 C   0  0  0  0  0  0  0  0  0  0  0  0
    8.1362   -3.9042    0.0000 Br  0  0  0  0  0  0  0  0  0  0  0  0
  1  2  1  0  0  0  0
  2  3  4  0  0  0  0
  3  4  4  0  0  0  0
  4  5  4  0  0  0  0
  5  6  4  0  0  0  0
  6  7  4  0  0  0  0
  2  7  4  0  0  0  0
  1  8  2  0  0  0  0
  1  9  1  0  0  0  0
  5 10  1  0  0  0  0
  3 11  1  0  0  0  0
 12 13  4  0  0  0  0
 13 14  4  0  0  0  0
 14 15  4  0  0  0  0
 15 16  4  0  0  0  0
 16 17  4  0  0  0  0
 12 17  4  0  0  0  0
 13 18  1  0  0  0  0
  9 12  1  0  0  0  0
M  END
> <From>
www.bindingDB.org

> <BindingDB Reactant_set_id>
408357

> <Ligand InChI>
InChI=1S/C14H12BrNO2/c1-9-6-7-10(13(17)8-9)14(18)16-12-5-3-2-4-11(12)15/h2-8,17H,1H3,(H,16,18)

> <Ligand InChI Key>
ZRWNLKAWOORDBK-UHFFFAOYSA-N

> <BindingDB MonomerID>
234312

> <BindingDB Ligand Name>
N-(2-bromophenyl)-2-hydroxy-4-methylbenzamide (14)

> <Target Name>
Epidermal growth factor receptor [645-1186]

> <Target Source Organism According to Curator or DataSource>


> <Ki (nM)>


> <IC50 (nM)>
 22190

> <Kd (nM)>


> <EC50 (nM)>


> <kon (M-1-s-1)>


> <koff (s-1)>


> <pH>
7.4

> <Temp C>
25.00

> <Curation/DataSource>
Curated from the literature by BindingDB

> <Article DOI>
10.3109/14756361003671060

> <BindingDB Entry DOI>
10.7270/Q2XW4HPN

> <PMID>
20583855

> <PubChem AID>
aid1802974

> <Patent Number>


> <Authors>
Zhu, ZW; Shi, L; Ruan, XM; Yang, Y; Li, HQ; Xu, SP; Zhu, HL

> <Institution>
Nanjing University

> <Link to Ligand in BindingDB>
http://www.bindingdb.org/bind/chemsearch/marvin/MolStructure.jsp?monomerid=234312

> <Link to Ligand-Target Pair in BindingDB>
http://www.bindingdb.org/jsp/dbsearch/PrimarySearch_ki.jsp?energyterm=kJ/mole&tag=pol&polymerid=10043&target=Epidermal+growth+factor+receptor+%5B645-1186%5D&column=ki&startPg=0&Increment=50&submit=Search

> <Link to Ligand-Target Pair in BindingDB>
http://www.bindingdb.org/jsp/dbsearch/PrimarySearch_ki.jsp?energyterm=kJ/mole&tag=r21&monomerid=234312&enzyme=Epidermal+growth+factor+receptor+%5B645-1186%5D&column=ki&startPg=0&Increment=50&submit=Search

> <Ligand HET ID in PDB>


> <PDB ID(s) for Ligand-Target Complex>


> <PubChem CID of Ligand>
24694277

> <PubChem SID of Ligand>
340094301

> <ChEBI ID of Ligand>


> <ChEMBL ID of Ligand>


> <DrugBank ID of Ligand>


> <IUPHAR_GRAC ID of Ligand>


> <KEGG ID of Ligand>


> <ZINC ID of Ligand>


> <Number of Protein Chains in Target (bigger than 1 implies a multichain complex)>
1

> <BindingDB Target Chain Sequence>
SIATGMVGALLLLLVVALGIGLFMRRRHIVRKRTLRRLLQERELVEPLTPSGEAPNQALLRILKETEFKKIKVLGSGAFGTVYKGLWIPEGEKVKIPVAIKELREATSPKANKEILDEAYVMASVDNPHVCRLLGICLTSTVQLITQLMPFGCLLDYVREHKDNIGSQYLLNWCVQIAKGMNYLEDRRLVHRDLAARNVLVKTPQHVKITDFGLAKLLGAEEKEYHAEGGKVPIKWMALESILHRIYTHQSDVWSYGVTVWELMTFGSKPYDGIPASEISSILEKGERLPQPPICTIDVYMIMVKCWMIDADSRPKFRELIIEFSKMARDPQRYLVIQGDERMHLPSPTDSNFYRALMDEEDMDDVVDADEYLIPQQGFFSSPSTSRTPLLSSLSATSNNSTVACIDRNGLQSCPIKEDSFLQRYSSDPTGALTEDSIDDTFLPVPEYINQSVPKRPAGSVQNPVYHNQPLNPAPSRDPHYQDPHSTAVGNPEYLNTVQPTCVNSTFDSPAHWAQKGSHQISLDNPDYQQDFFPKEAKPNGI

> <PDB ID(s) of Target Chain>
1M14,1M17,1XKK,1Z9I,2GS2,2GS6,2ITW,2ITX,2ITY,2J5E,2J5F,2J6M,2RF9,2RGP,3BEL,3GOP,3POZ,3VJO,3W2O,3W2P,3W2Q,3W2R,3W2S,3W32,3W33,4G5J,4I23,4JQ7,4JQ8,4JR3,4JRV,4LI5,4RJ4,4RJ5,4RJ6,4RJ7,4RJ8,4TKS,4WKQ,4WRG,4ZAU,5C8K,5C8M,5C8N,5CAL,5CAN,5CAO,5CAP,5CAQ,5CAS,5CAU,5CAV,5EDP,5EDQ,5EDR,5EM5,5EM6,5EM7,5EM8,5GNK,5HCX,5HCY,5HCZ,5HIB,5HIC,5UGB,5Y25,6D8E,6JZ0,6S89,6S8A,6VH4,6VHN,6VHP,7AEI,7AEM,7B85,7OXB,7SI1,7UKV,7ZYM,7ZYN,7ZYP,8A27,8A2A,8HY7

> <UniProt (SwissProt) Recommended Name of Target Chain>
Epidermal growth factor receptor

> <UniProt (SwissProt) Entry Name of Target Chain>
EGFR_HUMAN

> <UniProt (SwissProt) Primary ID of Target Chain>
P00533

> <UniProt (SwissProt) Secondary ID(s) of Target Chain>
O00688 O00732 P06268 Q14225 Q68GS5 Q92795 Q9BZS2 Q9GZX1 Q9H2C9 Q9H3C9 Q9UMD7 Q9UMD8 Q9UMG5

> <UniProt (SwissProt) Alternative ID(s) of Target Chain>


> <UniProt (TrEMBL) Submitted Name of Target Chain>


> <UniProt (TrEMBL) Entry Name of Target Chain>


> <UniProt (TrEMBL) Primary ID of Target Chain>


> <UniProt (TrEMBL) Secondary ID(s) of Target Chain>


> <UniProt (TrEMBL) Alternative ID(s) of Target Chain>


$$$$

  Mrv0541 11231415182D          

 20 21  0  0  0  0            999 V2000
    6.0777  -11.4291    0.0000 C   0  0  0  0  0  0  0  0  0  0  0  0
    6.0766  -12.2565    0.0000 C   0  0  0  0  0  0  0  0  0  0  0  0
    6.7914  -12.6694    0.0000 C   0  0  0  0  0  0  0  0  0  0  0  0
    7.5078  -12.2560    0.0000 C   0  0  0  0  0  0  0  0  0  0  0  0
    7.5050  -11.4255    0.0000 C   0  0  0  0  0  0  0  0  0  0  0  0
    6.7896  -11.0164    0.0000 C   0  0  0  0  0  0  0  0  0  0  0  0
    6.7912  -13.4944    0.0000 O   0  0  0  0  0  0  0  0  0  0  0  0
    8.2230  -12.6674    0.0000 C   0  0  0  0  0  0  0  0  0  0  0  0
    8.2242  -13.4924    0.0000 O   0  0  0  0  0  0  0  0  0  0  0  0
    8.9368  -12.2538    0.0000 N   0  0  0  0  0  0  0  0  0  0  0  0
    9.6519  -12.6652    0.0000 C   0  0  0  0  0  0  0  0  0  0  0  0
    9.6485  -13.4886    0.0000 C   0  0  0  0  0  0  0  0  0  0  0  0
   10.3628  -13.8999    0.0000 C   0  0  0  0  0  0  0  0  0  0  0  0
   11.0776  -13.4862    0.0000 C   0  0  0  0  0  0  0  0  0  0  0  0
   11.0736  -12.6569    0.0000 C   0  0  0  0  0  0  0  0  0  0  0  0
   10.3588  -12.2494    0.0000 C   0  0  0  0  0  0  0  0  0  0  0  0
    6.7871  -10.1914    0.0000 Br  0  0  0  0  0  0  0  0  0  0  0  0
    5.3618  -12.6684    0.0000 Br  0  0  0  0  0  0  0  0  0  0  0  0
   11.7933  -13.8966    0.0000 O   0  0  0  0  0  0  0  0  0  0  0  0
   12.5065  -13.4821    0.0000 C   0  0  0  0  0  0  0  0  0  0  0  0
  8 10  1  0  0  0  0
  2  3  2  0  0  0  0
 10 11  1  0  0  0  0
  5  6  1  0  0  0  0
 11 12  2  0  0  0  0
  6  1  2  0  0  0  0
 12 13  1  0  0  0  0
  1  2  1  0  0  0  0
 13 14  2  0  0  0  0
  3  7  1  0  0  0  0
 14 15  1  0  0  0  0
  3  4  1  0  0  0  0
 15 16  2  0  0  0  0
 16 11  1  0  0  0  0
  4  8  1  0  0  0  0
  6 17  1  0  0  0  0
  2 18  1  0  0  0  0
  8  9  2  0  0  0  0
 14 19  1  0  0  0  0
  4  5  2  0  0  0  0
 19 20  1  0  0  0  0
M  END
> <From>
www.bindingDB.org

> <BindingDB Reactant_set_id>
408375

> <Ligand InChI>
InChI=1S/C14H11Br2NO3/c1-20-10-4-2-9(3-5-10)17-14(19)11-6-8(15)7-12(16)13(11)18/h2-7,18H,1H3,(H,17,19)

> <Ligand InChI Key>
YFQYZLCHJYREBN-UHFFFAOYSA-N

> <BindingDB MonomerID>
50347555

> <BindingDB Ligand Name>
3,5-Dibromo-2-hydroxy-N-(4-methoxyphenyl)benzamide (32)::CHEMBL1801802

> <Target Name>
Epidermal growth factor receptor [645-1186]

> <Target Source Organism According to Curator or DataSource>


> <Ki (nM)>


> <IC50 (nM)>
 22390

> <Kd (nM)>


> <EC50 (nM)>


> <kon (M-1-s-1)>


> <koff (s-1)>


> <pH>
7.4

> <Temp C>
25.00

> <Curation/DataSource>
Curated from the literature by BindingDB

> <Article DOI>
10.3109/14756361003671060

> <BindingDB Entry DOI>
10.7270/Q2XW4HPN

> <PMID>
20583855

> <PubChem AID>
aid1802974

> <Patent Number>


> <Authors>
Zhu, ZW; Shi, L; Ruan, XM; Yang, Y; Li, HQ; Xu, SP; Zhu, HL

> <Institution>
Nanjing University

> <Link to Ligand in BindingDB>
http://www.bindingdb.org/bind/chemsearch/marvin/MolStructure.jsp?monomerid=50347555

> <Link to Ligand-Target Pair in BindingDB>
http://www.bindingdb.org/jsp/dbsearch/PrimarySearch_ki.jsp?energyterm=kJ/mole&tag=pol&polymerid=10043&target=Epidermal+growth+factor+receptor+%5B645-1186%5D&column=ki&startPg=0&Increment=50&submit=Search

> <Link to Ligand-Target Pair in BindingDB>
http://www.bindingdb.org/jsp/dbsearch/PrimarySearch_ki.jsp?energyterm=kJ/mole&tag=r21&monomerid=50347555&enzyme=Epidermal+growth+factor+receptor+%5B645-1186%5D&column=ki&startPg=0&Increment=50&submit=Search

> <Ligand HET ID in PDB>


> <PDB ID(s) for Ligand-Target Complex>


> <PubChem CID of Ligand>
3401015

> <PubChem SID of Ligand>
136354241

> <ChEBI ID of Ligand>


> <ChEMBL ID of Ligand>
CHEMBL1801802

> <DrugBank ID of Ligand>


> <IUPHAR_GRAC ID of Ligand>


> <KEGG ID of Ligand>


> <ZINC ID of Ligand>
ZINC03156573

> <Number of Protein Chains in Target (bigger than 1 implies a multichain complex)>
1

> <BindingDB Target Chain Sequence>
SIATGMVGALLLLLVVALGIGLFMRRRHIVRKRTLRRLLQERELVEPLTPSGEAPNQALLRILKETEFKKIKVLGSGAFGTVYKGLWIPEGEKVKIPVAIKELREATSPKANKEILDEAYVMASVDNPHVCRLLGICLTSTVQLITQLMPFGCLLDYVREHKDNIGSQYLLNWCVQIAKGMNYLEDRRLVHRDLAARNVLVKTPQHVKITDFGLAKLLGAEEKEYHAEGGKVPIKWMALESILHRIYTHQSDVWSYGVTVWELMTFGSKPYDGIPASEISSILEKGERLPQPPICTIDVYMIMVKCWMIDADSRPKFRELIIEFSKMARDPQRYLVIQGDERMHLPSPTDSNFYRALMDEEDMDDVVDADEYLIPQQGFFSSPSTSRTPLLSSLSATSNNSTVACIDRNGLQSCPIKEDSFLQRYSSDPTGALTEDSIDDTFLPVPEYINQSVPKRPAGSVQNPVYHNQPLNPAPSRDPHYQDPHSTAVGNPEYLNTVQPTCVNSTFDSPAHWAQKGSHQISLDNPDYQQDFFPKEAKPNGI

> <PDB ID(s) of Target Chain>
1M14,1M17,1XKK,1Z9I,2GS2,2GS6,2ITW,2ITX,2ITY,2J5E,2J5F,2J6M,2RF9,2RGP,3BEL,3GOP,3POZ,3VJO,3W2O,3W2P,3W2Q,3W2R,3W2S,3W32,3W33,4G5J,4I23,4JQ7,4JQ8,4JR3,4JRV,4LI5,4RJ4,4RJ5,4RJ6,4RJ7,4RJ8,4TKS,4WKQ,4WRG,4ZAU,5C8K,5C8M,5C8N,5CAL,5CAN,5CAO,5CAP,5CAQ,5CAS,5CAU,5CAV,5EDP,5EDQ,5EDR,5EM5,5EM6,5EM7,5EM8,5GNK,5HCX,5HCY,5HCZ,5HIB,5HIC,5UGB,5Y25,6D8E,6JZ0,6S89,6S8A,6VH4,6VHN,6VHP,7AEI,7AEM,7B85,7OXB,7SI1,7UKV,7ZYM,7ZYN,7ZYP,8A27,8A2A,8HY7

> <UniProt (SwissProt) Recommended Name of Target Chain>
Epidermal growth factor receptor

> <UniProt (SwissProt) Entry Name of Target Chain>
EGFR_HUMAN

> <UniProt (SwissProt) Primary ID of Target Chain>
P00533

> <UniProt (SwissProt) Secondary ID(s) of Target Chain>
O00688 O00732 P06268 Q14225 Q68GS5 Q92795 Q9BZS2 Q9GZX1 Q9H2C9 Q9H3C9 Q9UMD7 Q9UMD8 Q9UMG5

> <UniProt (SwissProt) Alternative ID(s) of Target Chain>


> <UniProt (TrEMBL) Submitted Name of Target Chain>


> <UniProt (TrEMBL) Entry Name of Target Chain>


> <UniProt (TrEMBL) Primary ID of Target Chain>


> <UniProt (TrEMBL) Secondary ID(s) of Target Chain>


> <UniProt (TrEMBL) Alternative ID(s) of Target Chain>


$$$$
Untitled Document-1
  Mrv0541 06191716202D          

 17 18  0  0  0  0            999 V2000
    7.0678   -5.1417    0.0000 C   0  0  0  0  0  0  0  0  0  0  0  0
    6.3533   -5.5542    0.0000 C   0  0  0  0  0  0  0  0  0  0  0  0
    6.3533   -6.3792    0.0000 C   0  0  0  0  0  0  0  0  0  0  0  0
    5.6389   -6.7917    0.0000 C   0  0  0  0  0  0  0  0  0  0  0  0
    4.9244   -6.3792    0.0000 C   0  0  0  0  0  0  0  0  0  0  0  0
    4.9244   -5.5542    0.0000 C   0  0  0  0  0  0  0  0  0  0  0  0
    5.6389   -5.1417    0.0000 C   0  0  0  0  0  0  0  0  0  0  0  0
    7.0678   -4.3167    0.0000 O   0  0  0  0  0  0  0  0  0  0  0  0
    7.7822   -5.5542    0.0000 N   0  0  0  0  0  0  0  0  0  0  0  0
    7.0678   -6.7917    0.0000 O   0  0  0  0  0  0  0  0  0  0  0  0
    8.4967   -5.1417    0.0000 C   0  0  0  0  0  0  0  0  0  0  0  0
    8.4967   -4.3167    0.0000 C   0  0  0  0  0  0  0  0  0  0  0  0
    9.2111   -3.9042    0.0000 C   0  0  0  0  0  0  0  0  0  0  0  0
    9.9256   -4.3167    0.0000 C   0  0  0  0  0  0  0  0  0  0  0  0
    9.9256   -5.1417    0.0000 C   0  0  0  0  0  0  0  0  0  0  0  0
    9.2111   -5.5542    0.0000 C   0  0  0  0  0  0  0  0  0  0  0  0
    7.7822   -3.9042    0.0000 F   0  0  0  0  0  0  0  0  0  0  0  0
  1  2  1  0  0  0  0
  2  3  4  0  0  0  0
  3  4  4  0  0  0  0
  4  5  4  0  0  0  0
  5  6  4  0  0  0  0
  6  7  4  0  0  0  0
  2  7  4  0  0  0  0
  1  8  2  0  0  0  0
  1  9  1  0  0  0  0
  3 10  1  0  0  0  0
 11 12  4  0  0  0  0
 12 13  4  0  0  0  0
 13 14  4  0  0  0  0
 14 15  4  0  0  0  0
 15 16  4  0  0  0  0
 11 16  4  0  0  0  0
 12 17  1  0  0  0  0
  9 11  1  0  0  0  0
M  END
> <From>
www.bindingDB.org

> <BindingDB Reactant_set_id>
408345

> <Ligand InChI>
InChI=1S/C13H10FNO2/c14-10-6-2-3-7-11(10)15-13(17)9-5-1-4-8-12(9)16/h1-8,16H,(H,15,17)

> <Ligand InChI Key>
KRPASKLFRLGQHR-UHFFFAOYSA-N

> <BindingDB MonomerID>
234301

> <BindingDB Ligand Name>
N-(2-fluorophenyl)-2-hydroxybenzamide (2)

> <Target Name>
Epidermal growth factor receptor [645-1186]

> <Target Source Organism According to Curator or DataSource>


> <Ki (nM)>


> <IC50 (nM)>
 24830

> <Kd (nM)>


> <EC50 (nM)>


> <kon (M-1-s-1)>


> <koff (s-1)>


> <pH>
7.4

> <Temp C>
25.00

> <Curation/DataSource>
Curated from the literature by BindingDB

> <Article DOI>
10.3109/14756361003671060

> <BindingDB Entry DOI>
10.7270/Q2XW4HPN

> <PMID>
20583855

> <PubChem AID>
aid1802974

> <Patent Number>


> <Authors>
Zhu, ZW; Shi, L; Ruan, XM; Yang, Y; Li, HQ; Xu, SP; Zhu, HL

> <Institution>
Nanjing University

> <Link to Ligand in BindingDB>
http://www.bindingdb.org/bind/chemsearch/marvin/MolStructure.jsp?monomerid=234301

> <Link to Ligand-Target Pair in BindingDB>
http://www.bindingdb.org/jsp/dbsearch/PrimarySearch_ki.jsp?energyterm=kJ/mole&tag=pol&polymerid=10043&target=Epidermal+growth+factor+receptor+%5B645-1186%5D&column=ki&startPg=0&Increment=50&submit=Search

> <Link to Ligand-Target Pair in BindingDB>
http://www.bindingdb.org/jsp/dbsearch/PrimarySearch_ki.jsp?energyterm=kJ/mole&tag=r21&monomerid=234301&enzyme=Epidermal+growth+factor+receptor+%5B645-1186%5D&column=ki&startPg=0&Increment=50&submit=Search

> <Ligand HET ID in PDB>


> <PDB ID(s) for Ligand-Target Complex>


> <PubChem CID of Ligand>
24285067

> <PubChem SID of Ligand>
340094290

> <ChEBI ID of Ligand>


> <ChEMBL ID of Ligand>


> <DrugBank ID of Ligand>


> <IUPHAR_GRAC ID of Ligand>


> <KEGG ID of Ligand>


> <ZINC ID of Ligand>


> <Number of Protein Chains in Target (bigger than 1 implies a multichain complex)>
1

> <BindingDB Target Chain Sequence>
SIATGMVGALLLLLVVALGIGLFMRRRHIVRKRTLRRLLQERELVEPLTPSGEAPNQALLRILKETEFKKIKVLGSGAFGTVYKGLWIPEGEKVKIPVAIKELREATSPKANKEILDEAYVMASVDNPHVCRLLGICLTSTVQLITQLMPFGCLLDYVREHKDNIGSQYLLNWCVQIAKGMNYLEDRRLVHRDLAARNVLVKTPQHVKITDFGLAKLLGAEEKEYHAEGGKVPIKWMALESILHRIYTHQSDVWSYGVTVWELMTFGSKPYDGIPASEISSILEKGERLPQPPICTIDVYMIMVKCWMIDADSRPKFRELIIEFSKMARDPQRYLVIQGDERMHLPSPTDSNFYRALMDEEDMDDVVDADEYLIPQQGFFSSPSTSRTPLLSSLSATSNNSTVACIDRNGLQSCPIKEDSFLQRYSSDPTGALTEDSIDDTFLPVPEYINQSVPKRPAGSVQNPVYHNQPLNPAPSRDPHYQDPHSTAVGNPEYLNTVQPTCVNSTFDSPAHWAQKGSHQISLDNPDYQQDFFPKEAKPNGI

> <PDB ID(s) of Target Chain>
1M14,1M17,1XKK,1Z9I,2GS2,2GS6,2ITW,2ITX,2ITY,2J5E,2J5F,2J6M,2RF9,2RGP,3BEL,3GOP,3POZ,3VJO,3W2O,3W2P,3W2Q,3W2R,3W2S,3W32,3W33,4G5J,4I23,4JQ7,4JQ8,4JR3,4JRV,4LI5,4RJ4,4RJ5,4RJ6,4RJ7,4RJ8,4TKS,4WKQ,4WRG,4ZAU,5C8K,5C8M,5C8N,5CAL,5CAN,5CAO,5CAP,5CAQ,5CAS,5CAU,5CAV,5EDP,5EDQ,5EDR,5EM5,5EM6,5EM7,5EM8,5GNK,5HCX,5HCY,5HCZ,5HIB,5HIC,5UGB,5Y25,6D8E,6JZ0,6S89,6S8A,6VH4,6VHN,6VHP,7AEI,7AEM,7B85,7OXB,7SI1,7UKV,7ZYM,7ZYN,7ZYP,8A27,8A2A,8HY7

> <UniProt (SwissProt) Recommended Name of Target Chain>
Epidermal growth factor receptor

> <UniProt (SwissProt) Entry Name of Target Chain>
EGFR_HUMAN

> <UniProt (SwissProt) Primary ID of Target Chain>
P00533

> <UniProt (SwissProt) Secondary ID(s) of Target Chain>
O00688 O00732 P06268 Q14225 Q68GS5 Q92795 Q9BZS2 Q9GZX1 Q9H2C9 Q9H3C9 Q9UMD7 Q9UMD8 Q9UMG5

> <UniProt (SwissProt) Alternative ID(s) of Target Chain>


> <UniProt (TrEMBL) Submitted Name of Target Chain>


> <UniProt (TrEMBL) Entry Name of Target Chain>


> <UniProt (TrEMBL) Primary ID of Target Chain>


> <UniProt (TrEMBL) Secondary ID(s) of Target Chain>


> <UniProt (TrEMBL) Alternative ID(s) of Target Chain>


$$$$
478805
  Mrv0541 11251415592D          

 17 18  0  0  0  0            999 V2000
    2.0930   -1.4438    0.0000 O   0  0  0  0  0  0  0  0  0  0  0  0
    2.8075   -0.2063    0.0000 O   0  0  0  0  0  0  0  0  0  0  0  0
    4.2365   -0.2063    0.0000 N   0  0  0  0  0  0  0  0  0  0  0  0
    4.2365    0.6188    0.0000 C   0  0  0  0  0  0  0  0  0  0  0  0
    3.5220   -1.4438    0.0000 C   0  0  0  0  0  0  0  0  0  0  0  0
    4.2365    2.2688    0.0000 C   0  0  0  0  0  0  0  0  0  0  0  0
    4.9509    1.0313    0.0000 C   0  0  0  0  0  0  0  0  0  0  0  0
    3.5220    1.0313    0.0000 C   0  0  0  0  0  0  0  0  0  0  0  0
    3.5220   -0.6188    0.0000 C   0  0  0  0  0  0  0  0  0  0  0  0
    4.9509    1.8563    0.0000 C   0  0  0  0  0  0  0  0  0  0  0  0
    3.5220    1.8563    0.0000 C   0  0  0  0  0  0  0  0  0  0  0  0
    2.8075   -1.8563    0.0000 C   0  0  0  0  0  0  0  0  0  0  0  0
    4.2365   -1.8563    0.0000 C   0  0  0  0  0  0  0  0  0  0  0  0
    4.2365    3.0938    0.0000 C   0  0  0  0  0  0  0  0  0  0  0  0
    2.8075   -2.6813    0.0000 C   0  0  0  0  0  0  0  0  0  0  0  0
    4.2365   -2.6813    0.0000 C   0  0  0  0  0  0  0  0  0  0  0  0
    3.5220   -3.0938    0.0000 C   0  0  0  0  0  0  0  0  0  0  0  0
  1 12  1  0  0  0  0
  2  9  2  0  0  0  0
  3  4  1  0  0  0  0
  3  9  1  0  0  0  0
  4  7  2  0  0  0  0
  4  8  1  0  0  0  0
  5  9  1  0  0  0  0
  5 12  2  0  0  0  0
  5 13  1  0  0  0  0
  6 10  2  0  0  0  0
  6 11  1  0  0  0  0
  6 14  1  0  0  0  0
  7 10  1  0  0  0  0
  8 11  2  0  0  0  0
 12 15  1  0  0  0  0
 13 16  2  0  0  0  0
 15 17  2  0  0  0  0
 16 17  1  0  0  0  0
M  END
> <From>
www.bindingDB.org

> <BindingDB Reactant_set_id>
408353

> <Ligand InChI>
InChI=1S/C14H13NO2/c1-10-6-8-11(9-7-10)15-14(17)12-4-2-3-5-13(12)16/h2-9,16H,1H3,(H,15,17)

> <Ligand InChI Key>
QMLRNTPTRWMCOP-UHFFFAOYSA-N

> <BindingDB MonomerID>
49214

> <BindingDB Ligand Name>
2-Hydroxy-N-p-tolylbenzamide (10)::2-hydroxy-N-(4-methylphenyl)benzamide::2-hydroxy-N-(p-tolyl)benzamide::MLS000053968::N-(4-methylphenyl)-2-oxidanyl-benzamide::SMR000061984::cid_478805

> <Target Name>
Epidermal growth factor receptor [645-1186]

> <Target Source Organism According to Curator or DataSource>


> <Ki (nM)>


> <IC50 (nM)>
 25740

> <Kd (nM)>


> <EC50 (nM)>


> <kon (M-1-s-1)>


> <koff (s-1)>


> <pH>
7.4

> <Temp C>
25.00

> <Curation/DataSource>
Curated from the literature by BindingDB

> <Article DOI>
10.3109/14756361003671060

> <BindingDB Entry DOI>
10.7270/Q2XW4HPN

> <PMID>
20583855

> <PubChem AID>
aid1802974

> <Patent Number>


> <Authors>
Zhu, ZW; Shi, L; Ruan, XM; Yang, Y; Li, HQ; Xu, SP; Zhu, HL

> <Institution>
Nanjing University

> <Link to Ligand in BindingDB>
http://www.bindingdb.org/bind/chemsearch/marvin/MolStructure.jsp?monomerid=49214

> <Link to Ligand-Target Pair in BindingDB>
http://www.bindingdb.org/jsp/dbsearch/PrimarySearch_ki.jsp?energyterm=kJ/mole&tag=pol&polymerid=10043&target=Epidermal+growth+factor+receptor+%5B645-1186%5D&column=ki&startPg=0&Increment=50&submit=Search

> <Link to Ligand-Target Pair in BindingDB>
http://www.bindingdb.org/jsp/dbsearch/PrimarySearch_ki.jsp?energyterm=kJ/mole&tag=r21&monomerid=49214&enzyme=Epidermal+growth+factor+receptor+%5B645-1186%5D&column=ki&startPg=0&Increment=50&submit=Search

> <Ligand HET ID in PDB>


> <PDB ID(s) for Ligand-Target Complex>


> <PubChem CID of Ligand>
478805

> <PubChem SID of Ligand>
252629495

> <ChEBI ID of Ligand>


> <ChEMBL ID of Ligand>


> <DrugBank ID of Ligand>


> <IUPHAR_GRAC ID of Ligand>


> <KEGG ID of Ligand>


> <ZINC ID of Ligand>
ZINC01440600

> <Number of Protein Chains in Target (bigger than 1 implies a multichain complex)>
1

> <BindingDB Target Chain Sequence>
SIATGMVGALLLLLVVALGIGLFMRRRHIVRKRTLRRLLQERELVEPLTPSGEAPNQALLRILKETEFKKIKVLGSGAFGTVYKGLWIPEGEKVKIPVAIKELREATSPKANKEILDEAYVMASVDNPHVCRLLGICLTSTVQLITQLMPFGCLLDYVREHKDNIGSQYLLNWCVQIAKGMNYLEDRRLVHRDLAARNVLVKTPQHVKITDFGLAKLLGAEEKEYHAEGGKVPIKWMALESILHRIYTHQSDVWSYGVTVWELMTFGSKPYDGIPASEISSILEKGERLPQPPICTIDVYMIMVKCWMIDADSRPKFRELIIEFSKMARDPQRYLVIQGDERMHLPSPTDSNFYRALMDEEDMDDVVDADEYLIPQQGFFSSPSTSRTPLLSSLSATSNNSTVACIDRNGLQSCPIKEDSFLQRYSSDPTGALTEDSIDDTFLPVPEYINQSVPKRPAGSVQNPVYHNQPLNPAPSRDPHYQDPHSTAVGNPEYLNTVQPTCVNSTFDSPAHWAQKGSHQISLDNPDYQQDFFPKEAKPNGI

> <PDB ID(s) of Target Chain>
1M14,1M17,1XKK,1Z9I,2GS2,2GS6,2ITW,2ITX,2ITY,2J5E,2J5F,2J6M,2RF9,2RGP,3BEL,3GOP,3POZ,3VJO,3W2O,3W2P,3W2Q,3W2R,3W2S,3W32,3W33,4G5J,4I23,4JQ7,4JQ8,4JR3,4JRV,4LI5,4RJ4,4RJ5,4RJ6,4RJ7,4RJ8,4TKS,4WKQ,4WRG,4ZAU,5C8K,5C8M,5C8N,5CAL,5CAN,5CAO,5CAP,5CAQ,5CAS,5CAU,5CAV,5EDP,5EDQ,5EDR,5EM5,5EM6,5EM7,5EM8,5GNK,5HCX,5HCY,5HCZ,5HIB,5HIC,5UGB,5Y25,6D8E,6JZ0,6S89,6S8A,6VH4,6VHN,6VHP,7AEI,7AEM,7B85,7OXB,7SI1,7UKV,7ZYM,7ZYN,7ZYP,8A27,8A2A,8HY7

> <UniProt (SwissProt) Recommended Name of Target Chain>
Epidermal growth factor receptor

> <UniProt (SwissProt) Entry Name of Target Chain>
EGFR_HUMAN

> <UniProt (SwissProt) Primary ID of Target Chain>
P00533

> <UniProt (SwissProt) Secondary ID(s) of Target Chain>
O00688 O00732 P06268 Q14225 Q68GS5 Q92795 Q9BZS2 Q9GZX1 Q9H2C9 Q9H3C9 Q9UMD7 Q9UMD8 Q9UMG5

> <UniProt (SwissProt) Alternative ID(s) of Target Chain>


> <UniProt (TrEMBL) Submitted Name of Target Chain>


> <UniProt (TrEMBL) Entry Name of Target Chain>


> <UniProt (TrEMBL) Primary ID of Target Chain>


> <UniProt (TrEMBL) Secondary ID(s) of Target Chain>


> <UniProt (TrEMBL) Alternative ID(s) of Target Chain>


$$$$
Untitled Document-1
  Mrv0541 06191716202D          

 19 20  0  0  0  0            999 V2000
    7.0903   -4.7305    0.0000 C   0  0  0  0  0  0  0  0  0  0  0  0
    6.3759   -5.1430    0.0000 C   0  0  0  0  0  0  0  0  0  0  0  0
    6.3759   -5.9680    0.0000 C   0  0  0  0  0  0  0  0  0  0  0  0
    5.6614   -6.3805    0.0000 C   0  0  0  0  0  0  0  0  0  0  0  0
    4.9470   -5.9680    0.0000 C   0  0  0  0  0  0  0  0  0  0  0  0
    4.9470   -5.1430    0.0000 C   0  0  0  0  0  0  0  0  0  0  0  0
    5.6614   -4.7305    0.0000 C   0  0  0  0  0  0  0  0  0  0  0  0
    7.0903   -3.9055    0.0000 O   0  0  0  0  0  0  0  0  0  0  0  0
    7.8051   -5.1430    0.0000 N   0  0  0  0  0  0  0  0  0  0  0  0
    7.0903   -6.3805    0.0000 O   0  0  0  0  0  0  0  0  0  0  0  0
    8.5195   -4.7305    0.0000 C   0  0  0  0  0  0  0  0  0  0  0  0
    8.5195   -3.9055    0.0000 C   0  0  0  0  0  0  0  0  0  0  0  0
    9.2340   -3.4930    0.0000 C   0  0  0  0  0  0  0  0  0  0  0  0
    9.9484   -3.9055    0.0000 C   0  0  0  0  0  0  0  0  0  0  0  0
    9.9484   -4.7305    0.0000 C   0  0  0  0  0  0  0  0  0  0  0  0
    9.2340   -5.1430    0.0000 C   0  0  0  0  0  0  0  0  0  0  0  0
   10.6629   -3.4930    0.0000 Br  0  0  0  0  0  0  0  0  0  0  0  0
    4.2325   -4.7305    0.0000 Br  0  0  0  0  0  0  0  0  0  0  0  0
    5.6614   -7.2055    0.0000 Br  0  0  0  0  0  0  0  0  0  0  0  0
  1  2  1  0  0  0  0
  2  3  4  0  0  0  0
  3  4  4  0  0  0  0
  4  5  4  0  0  0  0
  5  6  4  0  0  0  0
  6  7  4  0  0  0  0
  2  7  4  0  0  0  0
  1  8  2  0  0  0  0
  1  9  1  0  0  0  0
  3 10  1  0  0  0  0
 11 12  4  0  0  0  0
 12 13  4  0  0  0  0
 13 14  4  0  0  0  0
 14 15  4  0  0  0  0
 15 16  4  0  0  0  0
 11 16  4  0  0  0  0
 14 17  1  0  0  0  0
  9 11  1  0  0  0  0
  6 18  1  0  0  0  0
  4 19  1  0  0  0  0
M  END
> <From>
www.bindingDB.org

> <BindingDB Reactant_set_id>
408374

> <Ligand InChI>
InChI=1S/C13H8Br3NO2/c14-7-1-3-9(4-2-7)17-13(19)10-5-8(15)6-11(16)12(10)18/h1-6,18H,(H,17,19)

> <Ligand InChI Key>
KVSKGMLNBAPGKH-UHFFFAOYSA-N

> <BindingDB MonomerID>
234329

> <BindingDB Ligand Name>
3,5-Dibromo-N-(4-bromophenyl)-2-hydroxybenzamide (31)

> <Target Name>
Epidermal growth factor receptor [645-1186]

> <Target Source Organism According to Curator or DataSource>


> <Ki (nM)>


> <IC50 (nM)>
 28530

> <Kd (nM)>


> <EC50 (nM)>


> <kon (M-1-s-1)>


> <koff (s-1)>


> <pH>
7.4

> <Temp C>
25.00

> <Curation/DataSource>
Curated from the literature by BindingDB

> <Article DOI>
10.3109/14756361003671060

> <BindingDB Entry DOI>
10.7270/Q2XW4HPN

> <PMID>
20583855

> <PubChem AID>
aid1802974

> <Patent Number>


> <Authors>
Zhu, ZW; Shi, L; Ruan, XM; Yang, Y; Li, HQ; Xu, SP; Zhu, HL

> <Institution>
Nanjing University

> <Link to Ligand in BindingDB>
http://www.bindingdb.org/bind/chemsearch/marvin/MolStructure.jsp?monomerid=234329

> <Link to Ligand-Target Pair in BindingDB>
http://www.bindingdb.org/jsp/dbsearch/PrimarySearch_ki.jsp?energyterm=kJ/mole&tag=pol&polymerid=10043&target=Epidermal+growth+factor+receptor+%5B645-1186%5D&column=ki&startPg=0&Increment=50&submit=Search

> <Link to Ligand-Target Pair in BindingDB>
http://www.bindingdb.org/jsp/dbsearch/PrimarySearch_ki.jsp?energyterm=kJ/mole&tag=r21&monomerid=234329&enzyme=Epidermal+growth+factor+receptor+%5B645-1186%5D&column=ki&startPg=0&Increment=50&submit=Search

> <Ligand HET ID in PDB>


> <PDB ID(s) for Ligand-Target Complex>


> <PubChem CID of Ligand>
14868

> <PubChem SID of Ligand>
340094318

> <ChEBI ID of Ligand>


> <ChEMBL ID of Ligand>


> <DrugBank ID of Ligand>


> <IUPHAR_GRAC ID of Ligand>


> <KEGG ID of Ligand>


> <ZINC ID of Ligand>


> <Number of Protein Chains in Target (bigger than 1 implies a multichain complex)>
1

> <BindingDB Target Chain Sequence>
SIATGMVGALLLLLVVALGIGLFMRRRHIVRKRTLRRLLQERELVEPLTPSGEAPNQALLRILKETEFKKIKVLGSGAFGTVYKGLWIPEGEKVKIPVAIKELREATSPKANKEILDEAYVMASVDNPHVCRLLGICLTSTVQLITQLMPFGCLLDYVREHKDNIGSQYLLNWCVQIAKGMNYLEDRRLVHRDLAARNVLVKTPQHVKITDFGLAKLLGAEEKEYHAEGGKVPIKWMALESILHRIYTHQSDVWSYGVTVWELMTFGSKPYDGIPASEISSILEKGERLPQPPICTIDVYMIMVKCWMIDADSRPKFRELIIEFSKMARDPQRYLVIQGDERMHLPSPTDSNFYRALMDEEDMDDVVDADEYLIPQQGFFSSPSTSRTPLLSSLSATSNNSTVACIDRNGLQSCPIKEDSFLQRYSSDPTGALTEDSIDDTFLPVPEYINQSVPKRPAGSVQNPVYHNQPLNPAPSRDPHYQDPHSTAVGNPEYLNTVQPTCVNSTFDSPAHWAQKGSHQISLDNPDYQQDFFPKEAKPNGI

> <PDB ID(s) of Target Chain>
1M14,1M17,1XKK,1Z9I,2GS2,2GS6,2ITW,2ITX,2ITY,2J5E,2J5F,2J6M,2RF9,2RGP,3BEL,3GOP,3POZ,3VJO,3W2O,3W2P,3W2Q,3W2R,3W2S,3W32,3W33,4G5J,4I23,4JQ7,4JQ8,4JR3,4JRV,4LI5,4RJ4,4RJ5,4RJ6,4RJ7,4RJ8,4TKS,4WKQ,4WRG,4ZAU,5C8K,5C8M,5C8N,5CAL,5CAN,5CAO,5CAP,5CAQ,5CAS,5CAU,5CAV,5EDP,5EDQ,5EDR,5EM5,5EM6,5EM7,5EM8,5GNK,5HCX,5HCY,5HCZ,5HIB,5HIC,5UGB,5Y25,6D8E,6JZ0,6S89,6S8A,6VH4,6VHN,6VHP,7AEI,7AEM,7B85,7OXB,7SI1,7UKV,7ZYM,7ZYN,7ZYP,8A27,8A2A,8HY7

> <UniProt (SwissProt) Recommended Name of Target Chain>
Epidermal growth factor receptor

> <UniProt (SwissProt) Entry Name of Target Chain>
EGFR_HUMAN

> <UniProt (SwissProt) Primary ID of Target Chain>
P00533

> <UniProt (SwissProt) Secondary ID(s) of Target Chain>
O00688 O00732 P06268 Q14225 Q68GS5 Q92795 Q9BZS2 Q9GZX1 Q9H2C9 Q9H3C9 Q9UMD7 Q9UMD8 Q9UMG5

> <UniProt (SwissProt) Alternative ID(s) of Target Chain>


> <UniProt (TrEMBL) Submitted Name of Target Chain>


> <UniProt (TrEMBL) Entry Name of Target Chain>


> <UniProt (TrEMBL) Primary ID of Target Chain>


> <UniProt (TrEMBL) Secondary ID(s) of Target Chain>


> <UniProt (TrEMBL) Alternative ID(s) of Target Chain>


$$$$
Untitled Document-1
  Mrv0541 06191716202D          

 19 20  0  0  0  0            999 V2000
    6.3566   -5.4931    0.0000 C   0  0  0  0  0  0  0  0  0  0  0  0
    5.6422   -5.9056    0.0000 C   0  0  0  0  0  0  0  0  0  0  0  0
    5.6422   -6.7306    0.0000 C   0  0  0  0  0  0  0  0  0  0  0  0
    4.9277   -7.1431    0.0000 C   0  0  0  0  0  0  0  0  0  0  0  0
    4.2133   -6.7306    0.0000 C   0  0  0  0  0  0  0  0  0  0  0  0
    4.2133   -5.9056    0.0000 C   0  0  0  0  0  0  0  0  0  0  0  0
    4.9277   -5.4931    0.0000 C   0  0  0  0  0  0  0  0  0  0  0  0
    6.3566   -4.6681    0.0000 O   0  0  0  0  0  0  0  0  0  0  0  0
    7.0711   -5.9056    0.0000 N   0  0  0  0  0  0  0  0  0  0  0  0
    7.7858   -5.4931    0.0000 C   0  0  0  0  0  0  0  0  0  0  0  0
    7.7858   -4.6681    0.0000 C   0  0  0  0  0  0  0  0  0  0  0  0
    8.5003   -4.2556    0.0000 C   0  0  0  0  0  0  0  0  0  0  0  0
    9.2147   -4.6681    0.0000 C   0  0  0  0  0  0  0  0  0  0  0  0
    9.2147   -5.4931    0.0000 C   0  0  0  0  0  0  0  0  0  0  0  0
    8.5003   -5.9056    0.0000 C   0  0  0  0  0  0  0  0  0  0  0  0
    9.9292   -4.2556    0.0000 C   0  0  0  0  0  0  0  0  0  0  0  0
    9.9292   -3.4306    0.0000 C   0  0  0  0  0  0  0  0  0  0  0  0
   10.6436   -4.6681    0.0000 C   0  0  0  0  0  0  0  0  0  0  0  0
    6.3566   -7.1431    0.0000 O   0  0  0  0  0  0  0  0  0  0  0  0
  1  2  1  0  0  0  0
  2  3  4  0  0  0  0
  3  4  4  0  0  0  0
  4  5  4  0  0  0  0
  5  6  4  0  0  0  0
  6  7  4  0  0  0  0
  2  7  4  0  0  0  0
  1  8  2  0  0  0  0
  1  9  1  0  0  0  0
 10 11  4  0  0  0  0
 11 12  4  0  0  0  0
 12 13  4  0  0  0  0
 13 14  4  0  0  0  0
 14 15  4  0  0  0  0
 10 15  4  0  0  0  0
 16 17  1  0  0  0  0
 16 18  1  0  0  0  0
 13 16  1  0  0  0  0
  9 10  1  0  0  0  0
  3 19  1  0  0  0  0
M  END
> <From>
www.bindingDB.org

> <BindingDB Reactant_set_id>
408355

> <Ligand InChI>
InChI=1S/C16H17NO2/c1-11(2)12-7-9-13(10-8-12)17-16(19)14-5-3-4-6-15(14)18/h3-11,18H,1-2H3,(H,17,19)

> <Ligand InChI Key>
CVUDMYZNTCVWMV-UHFFFAOYSA-N

> <BindingDB MonomerID>
234310

> <BindingDB Ligand Name>
2-Hydroxy-N-(4-isopropylphenyl)benzamide (12)

> <Target Name>
Epidermal growth factor receptor [645-1186]

> <Target Source Organism According to Curator or DataSource>


> <Ki (nM)>


> <IC50 (nM)>
 29620

> <Kd (nM)>


> <EC50 (nM)>


> <kon (M-1-s-1)>


> <koff (s-1)>


> <pH>
7.4

> <Temp C>
25.00

> <Curation/DataSource>
Curated from the literature by BindingDB

> <Article DOI>
10.3109/14756361003671060

> <BindingDB Entry DOI>
10.7270/Q2XW4HPN

> <PMID>
20583855

> <PubChem AID>
aid1802974

> <Patent Number>


> <Authors>
Zhu, ZW; Shi, L; Ruan, XM; Yang, Y; Li, HQ; Xu, SP; Zhu, HL

> <Institution>
Nanjing University

> <Link to Ligand in BindingDB>
http://www.bindingdb.org/bind/chemsearch/marvin/MolStructure.jsp?monomerid=234310

> <Link to Ligand-Target Pair in BindingDB>
http://www.bindingdb.org/jsp/dbsearch/PrimarySearch_ki.jsp?energyterm=kJ/mole&tag=pol&polymerid=10043&target=Epidermal+growth+factor+receptor+%5B645-1186%5D&column=ki&startPg=0&Increment=50&submit=Search

> <Link to Ligand-Target Pair in BindingDB>
http://www.bindingdb.org/jsp/dbsearch/PrimarySearch_ki.jsp?energyterm=kJ/mole&tag=r21&monomerid=234310&enzyme=Epidermal+growth+factor+receptor+%5B645-1186%5D&column=ki&startPg=0&Increment=50&submit=Search

> <Ligand HET ID in PDB>


> <PDB ID(s) for Ligand-Target Complex>


> <PubChem CID of Ligand>
9795043

> <PubChem SID of Ligand>
340094299

> <ChEBI ID of Ligand>


> <ChEMBL ID of Ligand>


> <DrugBank ID of Ligand>


> <IUPHAR_GRAC ID of Ligand>


> <KEGG ID of Ligand>


> <ZINC ID of Ligand>


> <Number of Protein Chains in Target (bigger than 1 implies a multichain complex)>
1

> <BindingDB Target Chain Sequence>
SIATGMVGALLLLLVVALGIGLFMRRRHIVRKRTLRRLLQERELVEPLTPSGEAPNQALLRILKETEFKKIKVLGSGAFGTVYKGLWIPEGEKVKIPVAIKELREATSPKANKEILDEAYVMASVDNPHVCRLLGICLTSTVQLITQLMPFGCLLDYVREHKDNIGSQYLLNWCVQIAKGMNYLEDRRLVHRDLAARNVLVKTPQHVKITDFGLAKLLGAEEKEYHAEGGKVPIKWMALESILHRIYTHQSDVWSYGVTVWELMTFGSKPYDGIPASEISSILEKGERLPQPPICTIDVYMIMVKCWMIDADSRPKFRELIIEFSKMARDPQRYLVIQGDERMHLPSPTDSNFYRALMDEEDMDDVVDADEYLIPQQGFFSSPSTSRTPLLSSLSATSNNSTVACIDRNGLQSCPIKEDSFLQRYSSDPTGALTEDSIDDTFLPVPEYINQSVPKRPAGSVQNPVYHNQPLNPAPSRDPHYQDPHSTAVGNPEYLNTVQPTCVNSTFDSPAHWAQKGSHQISLDNPDYQQDFFPKEAKPNGI

> <PDB ID(s) of Target Chain>
1M14,1M17,1XKK,1Z9I,2GS2,2GS6,2ITW,2ITX,2ITY,2J5E,2J5F,2J6M,2RF9,2RGP,3BEL,3GOP,3POZ,3VJO,3W2O,3W2P,3W2Q,3W2R,3W2S,3W32,3W33,4G5J,4I23,4JQ7,4JQ8,4JR3,4JRV,4LI5,4RJ4,4RJ5,4RJ6,4RJ7,4RJ8,4TKS,4WKQ,4WRG,4ZAU,5C8K,5C8M,5C8N,5CAL,5CAN,5CAO,5CAP,5CAQ,5CAS,5CAU,5CAV,5EDP,5EDQ,5EDR,5EM5,5EM6,5EM7,5EM8,5GNK,5HCX,5HCY,5HCZ,5HIB,5HIC,5UGB,5Y25,6D8E,6JZ0,6S89,6S8A,6VH4,6VHN,6VHP,7AEI,7AEM,7B85,7OXB,7SI1,7UKV,7ZYM,7ZYN,7ZYP,8A27,8A2A,8HY7

> <UniProt (SwissProt) Recommended Name of Target Chain>
Epidermal growth factor receptor

> <UniProt (SwissProt) Entry Name of Target Chain>
EGFR_HUMAN

> <UniProt (SwissProt) Primary ID of Target Chain>
P00533

> <UniProt (SwissProt) Secondary ID(s) of Target Chain>
O00688 O00732 P06268 Q14225 Q68GS5 Q92795 Q9BZS2 Q9GZX1 Q9H2C9 Q9H3C9 Q9UMD7 Q9UMD8 Q9UMG5

> <UniProt (SwissProt) Alternative ID(s) of Target Chain>


> <UniProt (TrEMBL) Submitted Name of Target Chain>


> <UniProt (TrEMBL) Entry Name of Target Chain>


> <UniProt (TrEMBL) Primary ID of Target Chain>


> <UniProt (TrEMBL) Secondary ID(s) of Target Chain>


> <UniProt (TrEMBL) Alternative ID(s) of Target Chain>


$$$$
Untitled Document-1
  Mrv0541 06191716202D          

 19 20  0  0  0  0            999 V2000
    6.9908   -5.1375    0.0000 C   0  0  0  0  0  0  0  0  0  0  0  0
    6.2763   -5.5500    0.0000 C   0  0  0  0  0  0  0  0  0  0  0  0
    6.2763   -6.3750    0.0000 C   0  0  0  0  0  0  0  0  0  0  0  0
    5.5619   -6.7875    0.0000 C   0  0  0  0  0  0  0  0  0  0  0  0
    4.8474   -6.3750    0.0000 C   0  0  0  0  0  0  0  0  0  0  0  0
    4.8474   -5.5500    0.0000 C   0  0  0  0  0  0  0  0  0  0  0  0
    5.5619   -5.1375    0.0000 C   0  0  0  0  0  0  0  0  0  0  0  0
    6.9908   -4.3125    0.0000 O   0  0  0  0  0  0  0  0  0  0  0  0
    7.7052   -5.5500    0.0000 N   0  0  0  0  0  0  0  0  0  0  0  0
    4.1330   -6.7875    0.0000 C   0  0  0  0  0  0  0  0  0  0  0  0
    6.9908   -6.7875    0.0000 O   0  0  0  0  0  0  0  0  0  0  0  0
    8.4197   -5.1375    0.0000 C   0  0  0  0  0  0  0  0  0  0  0  0
    8.4197   -4.3125    0.0000 C   0  0  0  0  0  0  0  0  0  0  0  0
    9.1344   -3.9000    0.0000 C   0  0  0  0  0  0  0  0  0  0  0  0
    9.8489   -4.3125    0.0000 C   0  0  0  0  0  0  0  0  0  0  0  0
    9.8489   -5.1375    0.0000 C   0  0  0  0  0  0  0  0  0  0  0  0
    9.1344   -5.5500    0.0000 C   0  0  0  0  0  0  0  0  0  0  0  0
   10.5633   -3.9000    0.0000 Cl  0  0  0  0  0  0  0  0  0  0  0  0
    7.7052   -3.9000    0.0000 Cl  0  0  0  0  0  0  0  0  0  0  0  0
  1  2  1  0  0  0  0
  2  3  4  0  0  0  0
  3  4  4  0  0  0  0
  4  5  4  0  0  0  0
  5  6  4  0  0  0  0
  6  7  4  0  0  0  0
  2  7  4  0  0  0  0
  1  8  2  0  0  0  0
  1  9  1  0  0  0  0
  5 10  1  0  0  0  0
  3 11  1  0  0  0  0
 12 13  4  0  0  0  0
 13 14  4  0  0  0  0
 14 15  4  0  0  0  0
 15 16  4  0  0  0  0
 16 17  4  0  0  0  0
 12 17  4  0  0  0  0
 15 18  1  0  0  0  0
 13 19  1  0  0  0  0
  9 12  1  0  0  0  0
M  END
> <From>
www.bindingDB.org

> <BindingDB Reactant_set_id>
408361

> <Ligand InChI>
InChI=1S/C14H11Cl2NO2/c1-8-2-4-10(13(18)6-8)14(19)17-12-5-3-9(15)7-11(12)16/h2-7,18H,1H3,(H,17,19)

> <Ligand InChI Key>
ZSHHCMUVJYRJCD-UHFFFAOYSA-N

> <BindingDB MonomerID>
234316

> <BindingDB Ligand Name>
N-(2,4-dichlorophenyl)-2-hydroxy-4-methylbenzamide (18)

> <Target Name>
Epidermal growth factor receptor [645-1186]

> <Target Source Organism According to Curator or DataSource>


> <Ki (nM)>


> <IC50 (nM)>
 31090

> <Kd (nM)>


> <EC50 (nM)>


> <kon (M-1-s-1)>


> <koff (s-1)>


> <pH>
7.4

> <Temp C>
25.00

> <Curation/DataSource>
Curated from the literature by BindingDB

> <Article DOI>
10.3109/14756361003671060

> <BindingDB Entry DOI>
10.7270/Q2XW4HPN

> <PMID>
20583855

> <PubChem AID>
aid1802974

> <Patent Number>


> <Authors>
Zhu, ZW; Shi, L; Ruan, XM; Yang, Y; Li, HQ; Xu, SP; Zhu, HL

> <Institution>
Nanjing University

> <Link to Ligand in BindingDB>
http://www.bindingdb.org/bind/chemsearch/marvin/MolStructure.jsp?monomerid=234316

> <Link to Ligand-Target Pair in BindingDB>
http://www.bindingdb.org/jsp/dbsearch/PrimarySearch_ki.jsp?energyterm=kJ/mole&tag=pol&polymerid=10043&target=Epidermal+growth+factor+receptor+%5B645-1186%5D&column=ki&startPg=0&Increment=50&submit=Search

> <Link to Ligand-Target Pair in BindingDB>
http://www.bindingdb.org/jsp/dbsearch/PrimarySearch_ki.jsp?energyterm=kJ/mole&tag=r21&monomerid=234316&enzyme=Epidermal+growth+factor+receptor+%5B645-1186%5D&column=ki&startPg=0&Increment=50&submit=Search

> <Ligand HET ID in PDB>


> <PDB ID(s) for Ligand-Target Complex>


> <PubChem CID of Ligand>
29560245

> <PubChem SID of Ligand>
340094305

> <ChEBI ID of Ligand>


> <ChEMBL ID of Ligand>


> <DrugBank ID of Ligand>


> <IUPHAR_GRAC ID of Ligand>


> <KEGG ID of Ligand>


> <ZINC ID of Ligand>


> <Number of Protein Chains in Target (bigger than 1 implies a multichain complex)>
1

> <BindingDB Target Chain Sequence>
SIATGMVGALLLLLVVALGIGLFMRRRHIVRKRTLRRLLQERELVEPLTPSGEAPNQALLRILKETEFKKIKVLGSGAFGTVYKGLWIPEGEKVKIPVAIKELREATSPKANKEILDEAYVMASVDNPHVCRLLGICLTSTVQLITQLMPFGCLLDYVREHKDNIGSQYLLNWCVQIAKGMNYLEDRRLVHRDLAARNVLVKTPQHVKITDFGLAKLLGAEEKEYHAEGGKVPIKWMALESILHRIYTHQSDVWSYGVTVWELMTFGSKPYDGIPASEISSILEKGERLPQPPICTIDVYMIMVKCWMIDADSRPKFRELIIEFSKMARDPQRYLVIQGDERMHLPSPTDSNFYRALMDEEDMDDVVDADEYLIPQQGFFSSPSTSRTPLLSSLSATSNNSTVACIDRNGLQSCPIKEDSFLQRYSSDPTGALTEDSIDDTFLPVPEYINQSVPKRPAGSVQNPVYHNQPLNPAPSRDPHYQDPHSTAVGNPEYLNTVQPTCVNSTFDSPAHWAQKGSHQISLDNPDYQQDFFPKEAKPNGI

> <PDB ID(s) of Target Chain>
1M14,1M17,1XKK,1Z9I,2GS2,2GS6,2ITW,2ITX,2ITY,2J5E,2J5F,2J6M,2RF9,2RGP,3BEL,3GOP,3POZ,3VJO,3W2O,3W2P,3W2Q,3W2R,3W2S,3W32,3W33,4G5J,4I23,4JQ7,4JQ8,4JR3,4JRV,4LI5,4RJ4,4RJ5,4RJ6,4RJ7,4RJ8,4TKS,4WKQ,4WRG,4ZAU,5C8K,5C8M,5C8N,5CAL,5CAN,5CAO,5CAP,5CAQ,5CAS,5CAU,5CAV,5EDP,5EDQ,5EDR,5EM5,5EM6,5EM7,5EM8,5GNK,5HCX,5HCY,5HCZ,5HIB,5HIC,5UGB,5Y25,6D8E,6JZ0,6S89,6S8A,6VH4,6VHN,6VHP,7AEI,7AEM,7B85,7OXB,7SI1,7UKV,7ZYM,7ZYN,7ZYP,8A27,8A2A,8HY7

> <UniProt (SwissProt) Recommended Name of Target Chain>
Epidermal growth factor receptor

> <UniProt (SwissProt) Entry Name of Target Chain>
EGFR_HUMAN

> <UniProt (SwissProt) Primary ID of Target Chain>
P00533

> <UniProt (SwissProt) Secondary ID(s) of Target Chain>
O00688 O00732 P06268 Q14225 Q68GS5 Q92795 Q9BZS2 Q9GZX1 Q9H2C9 Q9H3C9 Q9UMD7 Q9UMD8 Q9UMG5

> <UniProt (SwissProt) Alternative ID(s) of Target Chain>


> <UniProt (TrEMBL) Submitted Name of Target Chain>


> <UniProt (TrEMBL) Entry Name of Target Chain>


> <UniProt (TrEMBL) Primary ID of Target Chain>


> <UniProt (TrEMBL) Secondary ID(s) of Target Chain>


> <UniProt (TrEMBL) Alternative ID(s) of Target Chain>


$$$$
Untitled Document-1
  Mrv0541 06191716202D          

 18 19  0  0  0  0            999 V2000
    7.0678   -5.0886    0.0000 C   0  0  0  0  0  0  0  0  0  0  0  0
    6.3533   -5.5011    0.0000 C   0  0  0  0  0  0  0  0  0  0  0  0
    6.3533   -6.3261    0.0000 C   0  0  0  0  0  0  0  0  0  0  0  0
    5.6389   -6.7386    0.0000 C   0  0  0  0  0  0  0  0  0  0  0  0
    4.9244   -6.3261    0.0000 C   0  0  0  0  0  0  0  0  0  0  0  0
    4.9244   -5.5011    0.0000 C   0  0  0  0  0  0  0  0  0  0  0  0
    5.6389   -5.0886    0.0000 C   0  0  0  0  0  0  0  0  0  0  0  0
    7.0678   -4.2636    0.0000 O   0  0  0  0  0  0  0  0  0  0  0  0
    7.7822   -5.5011    0.0000 N   0  0  0  0  0  0  0  0  0  0  0  0
    8.4967   -5.0886    0.0000 C   0  0  0  0  0  0  0  0  0  0  0  0
    8.4967   -4.2636    0.0000 C   0  0  0  0  0  0  0  0  0  0  0  0
    9.9256   -4.2636    0.0000 C   0  0  0  0  0  0  0  0  0  0  0  0
    9.2111   -5.5011    0.0000 C   0  0  0  0  0  0  0  0  0  0  0  0
    9.2111   -3.8511    0.0000 C   0  0  0  0  0  0  0  0  0  0  0  0
    9.9256   -5.0886    0.0000 C   0  0  0  0  0  0  0  0  0  0  0  0
   10.6400   -3.8511    0.0000 C   0  0  0  0  0  0  0  0  0  0  0  0
    4.2100   -6.7386    0.0000 C   0  0  0  0  0  0  0  0  0  0  0  0
    7.0678   -6.7386    0.0000 O   0  0  0  0  0  0  0  0  0  0  0  0
  1  2  1  0  0  0  0
  2  3  4  0  0  0  0
  3  4  4  0  0  0  0
  4  5  4  0  0  0  0
  5  6  4  0  0  0  0
  6  7  4  0  0  0  0
  2  7  4  0  0  0  0
  1  8  2  0  0  0  0
  1  9  1  0  0  0  0
 10 11  4  0  0  0  0
 10 13  4  0  0  0  0
 11 14  4  0  0  0  0
 12 14  4  0  0  0  0
 12 15  4  0  0  0  0
 13 15  4  0  0  0  0
 12 16  1  0  0  0  0
  9 10  1  0  0  0  0
  5 17  1  0  0  0  0
  3 18  1  0  0  0  0
M  END
> <From>
www.bindingDB.org

> <BindingDB Reactant_set_id>
408362

> <Ligand InChI>
InChI=1S/C15H15NO2/c1-10-3-6-12(7-4-10)16-15(18)13-8-5-11(2)9-14(13)17/h3-9,17H,1-2H3,(H,16,18)

> <Ligand InChI Key>
RQABWRMPSFQPTI-UHFFFAOYSA-N

> <BindingDB MonomerID>
234317

> <BindingDB Ligand Name>
2-Hydroxy-4-methyl-N-p-tolylbenzamide (19)

> <Target Name>
Epidermal growth factor receptor [645-1186]

> <Target Source Organism According to Curator or DataSource>


> <Ki (nM)>


> <IC50 (nM)>
 34670

> <Kd (nM)>


> <EC50 (nM)>


> <kon (M-1-s-1)>


> <koff (s-1)>


> <pH>
7.4

> <Temp C>
25.00

> <Curation/DataSource>
Curated from the literature by BindingDB

> <Article DOI>
10.3109/14756361003671060

> <BindingDB Entry DOI>
10.7270/Q2XW4HPN

> <PMID>
20583855

> <PubChem AID>
aid1802974

> <Patent Number>


> <Authors>
Zhu, ZW; Shi, L; Ruan, XM; Yang, Y; Li, HQ; Xu, SP; Zhu, HL

> <Institution>
Nanjing University

> <Link to Ligand in BindingDB>
http://www.bindingdb.org/bind/chemsearch/marvin/MolStructure.jsp?monomerid=234317

> <Link to Ligand-Target Pair in BindingDB>
http://www.bindingdb.org/jsp/dbsearch/PrimarySearch_ki.jsp?energyterm=kJ/mole&tag=pol&polymerid=10043&target=Epidermal+growth+factor+receptor+%5B645-1186%5D&column=ki&startPg=0&Increment=50&submit=Search

> <Link to Ligand-Target Pair in BindingDB>
http://www.bindingdb.org/jsp/dbsearch/PrimarySearch_ki.jsp?energyterm=kJ/mole&tag=r21&monomerid=234317&enzyme=Epidermal+growth+factor+receptor+%5B645-1186%5D&column=ki&startPg=0&Increment=50&submit=Search

> <Ligand HET ID in PDB>


> <PDB ID(s) for Ligand-Target Complex>


> <PubChem CID of Ligand>
5274033

> <PubChem SID of Ligand>
340094306

> <ChEBI ID of Ligand>


> <ChEMBL ID of Ligand>


> <DrugBank ID of Ligand>


> <IUPHAR_GRAC ID of Ligand>


> <KEGG ID of Ligand>


> <ZINC ID of Ligand>


> <Number of Protein Chains in Target (bigger than 1 implies a multichain complex)>
1

> <BindingDB Target Chain Sequence>
SIATGMVGALLLLLVVALGIGLFMRRRHIVRKRTLRRLLQERELVEPLTPSGEAPNQALLRILKETEFKKIKVLGSGAFGTVYKGLWIPEGEKVKIPVAIKELREATSPKANKEILDEAYVMASVDNPHVCRLLGICLTSTVQLITQLMPFGCLLDYVREHKDNIGSQYLLNWCVQIAKGMNYLEDRRLVHRDLAARNVLVKTPQHVKITDFGLAKLLGAEEKEYHAEGGKVPIKWMALESILHRIYTHQSDVWSYGVTVWELMTFGSKPYDGIPASEISSILEKGERLPQPPICTIDVYMIMVKCWMIDADSRPKFRELIIEFSKMARDPQRYLVIQGDERMHLPSPTDSNFYRALMDEEDMDDVVDADEYLIPQQGFFSSPSTSRTPLLSSLSATSNNSTVACIDRNGLQSCPIKEDSFLQRYSSDPTGALTEDSIDDTFLPVPEYINQSVPKRPAGSVQNPVYHNQPLNPAPSRDPHYQDPHSTAVGNPEYLNTVQPTCVNSTFDSPAHWAQKGSHQISLDNPDYQQDFFPKEAKPNGI

> <PDB ID(s) of Target Chain>
1M14,1M17,1XKK,1Z9I,2GS2,2GS6,2ITW,2ITX,2ITY,2J5E,2J5F,2J6M,2RF9,2RGP,3BEL,3GOP,3POZ,3VJO,3W2O,3W2P,3W2Q,3W2R,3W2S,3W32,3W33,4G5J,4I23,4JQ7,4JQ8,4JR3,4JRV,4LI5,4RJ4,4RJ5,4RJ6,4RJ7,4RJ8,4TKS,4WKQ,4WRG,4ZAU,5C8K,5C8M,5C8N,5CAL,5CAN,5CAO,5CAP,5CAQ,5CAS,5CAU,5CAV,5EDP,5EDQ,5EDR,5EM5,5EM6,5EM7,5EM8,5GNK,5HCX,5HCY,5HCZ,5HIB,5HIC,5UGB,5Y25,6D8E,6JZ0,6S89,6S8A,6VH4,6VHN,6VHP,7AEI,7AEM,7B85,7OXB,7SI1,7UKV,7ZYM,7ZYN,7ZYP,8A27,8A2A,8HY7

> <UniProt (SwissProt) Recommended Name of Target Chain>
Epidermal growth factor receptor

> <UniProt (SwissProt) Entry Name of Target Chain>
EGFR_HUMAN

> <UniProt (SwissProt) Primary ID of Target Chain>
P00533

> <UniProt (SwissProt) Secondary ID(s) of Target Chain>
O00688 O00732 P06268 Q14225 Q68GS5 Q92795 Q9BZS2 Q9GZX1 Q9H2C9 Q9H3C9 Q9UMD7 Q9UMD8 Q9UMG5

> <UniProt (SwissProt) Alternative ID(s) of Target Chain>


> <UniProt (TrEMBL) Submitted Name of Target Chain>


> <UniProt (TrEMBL) Entry Name of Target Chain>


> <UniProt (TrEMBL) Primary ID of Target Chain>


> <UniProt (TrEMBL) Secondary ID(s) of Target Chain>


> <UniProt (TrEMBL) Alternative ID(s) of Target Chain>


$$$$
Untitled Document-1
  Mrv0541 06191716202D          

 18 19  0  0  0  0            999 V2000
    6.3566   -5.1433    0.0000 C   0  0  0  0  0  0  0  0  0  0  0  0
    5.6422   -5.5558    0.0000 C   0  0  0  0  0  0  0  0  0  0  0  0
    5.6422   -6.3808    0.0000 C   0  0  0  0  0  0  0  0  0  0  0  0
    4.9277   -6.7933    0.0000 C   0  0  0  0  0  0  0  0  0  0  0  0
    4.2133   -6.3808    0.0000 C   0  0  0  0  0  0  0  0  0  0  0  0
    4.2133   -5.5558    0.0000 C   0  0  0  0  0  0  0  0  0  0  0  0
    4.9277   -5.1433    0.0000 C   0  0  0  0  0  0  0  0  0  0  0  0
    6.3566   -4.3183    0.0000 O   0  0  0  0  0  0  0  0  0  0  0  0
    7.0711   -5.5558    0.0000 N   0  0  0  0  0  0  0  0  0  0  0  0
    7.7858   -5.1433    0.0000 C   0  0  0  0  0  0  0  0  0  0  0  0
    7.7858   -4.3183    0.0000 C   0  0  0  0  0  0  0  0  0  0  0  0
    8.5003   -3.9058    0.0000 C   0  0  0  0  0  0  0  0  0  0  0  0
    9.2147   -4.3183    0.0000 C   0  0  0  0  0  0  0  0  0  0  0  0
    9.2147   -5.1433    0.0000 C   0  0  0  0  0  0  0  0  0  0  0  0
    8.5003   -5.5558    0.0000 C   0  0  0  0  0  0  0  0  0  0  0  0
    9.9292   -3.9058    0.0000 O   0  0  0  0  0  0  0  0  0  0  0  0
   10.6436   -4.3183    0.0000 C   0  0  0  0  0  0  0  0  0  0  0  0
    6.3566   -6.7933    0.0000 O   0  0  0  0  0  0  0  0  0  0  0  0
  1  2  1  0  0  0  0
  2  3  4  0  0  0  0
  3  4  4  0  0  0  0
  4  5  4  0  0  0  0
  5  6  4  0  0  0  0
  6  7  4  0  0  0  0
  2  7  4  0  0  0  0
  1  8  2  0  0  0  0
  1  9  1  0  0  0  0
 10 11  4  0  0  0  0
 11 12  4  0  0  0  0
 12 13  4  0  0  0  0
 13 14  4  0  0  0  0
 14 15  4  0  0  0  0
 10 15  4  0  0  0  0
 16 17  1  0  0  0  0
 13 16  1  0  0  0  0
  9 10  1  0  0  0  0
  3 18  1  0  0  0  0
M  END
> <From>
www.bindingDB.org

> <BindingDB Reactant_set_id>
408354

> <Ligand InChI>
InChI=1S/C14H13NO3/c1-18-11-8-6-10(7-9-11)15-14(17)12-4-2-3-5-13(12)16/h2-9,16H,1H3,(H,15,17)

> <Ligand InChI Key>
SZEPRRFZUWYXNA-UHFFFAOYSA-N

> <BindingDB MonomerID>
234309

> <BindingDB Ligand Name>
2-Hydroxy-N-(4-methoxyphenyl)benzamide (11)

> <Target Name>
Epidermal growth factor receptor [645-1186]

> <Target Source Organism According to Curator or DataSource>


> <Ki (nM)>


> <IC50 (nM)>
 39980

> <Kd (nM)>


> <EC50 (nM)>


> <kon (M-1-s-1)>


> <koff (s-1)>


> <pH>
7.4

> <Temp C>
25.00

> <Curation/DataSource>
Curated from the literature by BindingDB

> <Article DOI>
10.3109/14756361003671060

> <BindingDB Entry DOI>
10.7270/Q2XW4HPN

> <PMID>
20583855

> <PubChem AID>
aid1802974

> <Patent Number>


> <Authors>
Zhu, ZW; Shi, L; Ruan, XM; Yang, Y; Li, HQ; Xu, SP; Zhu, HL

> <Institution>
Nanjing University

> <Link to Ligand in BindingDB>
http://www.bindingdb.org/bind/chemsearch/marvin/MolStructure.jsp?monomerid=234309

> <Link to Ligand-Target Pair in BindingDB>
http://www.bindingdb.org/jsp/dbsearch/PrimarySearch_ki.jsp?energyterm=kJ/mole&tag=pol&polymerid=10043&target=Epidermal+growth+factor+receptor+%5B645-1186%5D&column=ki&startPg=0&Increment=50&submit=Search

> <Link to Ligand-Target Pair in BindingDB>
http://www.bindingdb.org/jsp/dbsearch/PrimarySearch_ki.jsp?energyterm=kJ/mole&tag=r21&monomerid=234309&enzyme=Epidermal+growth+factor+receptor+%5B645-1186%5D&column=ki&startPg=0&Increment=50&submit=Search

> <Ligand HET ID in PDB>


> <PDB ID(s) for Ligand-Target Complex>


> <PubChem CID of Ligand>
478806

> <PubChem SID of Ligand>
340094298

> <ChEBI ID of Ligand>


> <ChEMBL ID of Ligand>


> <DrugBank ID of Ligand>


> <IUPHAR_GRAC ID of Ligand>


> <KEGG ID of Ligand>


> <ZINC ID of Ligand>


> <Number of Protein Chains in Target (bigger than 1 implies a multichain complex)>
1

> <BindingDB Target Chain Sequence>
SIATGMVGALLLLLVVALGIGLFMRRRHIVRKRTLRRLLQERELVEPLTPSGEAPNQALLRILKETEFKKIKVLGSGAFGTVYKGLWIPEGEKVKIPVAIKELREATSPKANKEILDEAYVMASVDNPHVCRLLGICLTSTVQLITQLMPFGCLLDYVREHKDNIGSQYLLNWCVQIAKGMNYLEDRRLVHRDLAARNVLVKTPQHVKITDFGLAKLLGAEEKEYHAEGGKVPIKWMALESILHRIYTHQSDVWSYGVTVWELMTFGSKPYDGIPASEISSILEKGERLPQPPICTIDVYMIMVKCWMIDADSRPKFRELIIEFSKMARDPQRYLVIQGDERMHLPSPTDSNFYRALMDEEDMDDVVDADEYLIPQQGFFSSPSTSRTPLLSSLSATSNNSTVACIDRNGLQSCPIKEDSFLQRYSSDPTGALTEDSIDDTFLPVPEYINQSVPKRPAGSVQNPVYHNQPLNPAPSRDPHYQDPHSTAVGNPEYLNTVQPTCVNSTFDSPAHWAQKGSHQISLDNPDYQQDFFPKEAKPNGI

> <PDB ID(s) of Target Chain>
1M14,1M17,1XKK,1Z9I,2GS2,2GS6,2ITW,2ITX,2ITY,2J5E,2J5F,2J6M,2RF9,2RGP,3BEL,3GOP,3POZ,3VJO,3W2O,3W2P,3W2Q,3W2R,3W2S,3W32,3W33,4G5J,4I23,4JQ7,4JQ8,4JR3,4JRV,4LI5,4RJ4,4RJ5,4RJ6,4RJ7,4RJ8,4TKS,4WKQ,4WRG,4ZAU,5C8K,5C8M,5C8N,5CAL,5CAN,5CAO,5CAP,5CAQ,5CAS,5CAU,5CAV,5EDP,5EDQ,5EDR,5EM5,5EM6,5EM7,5EM8,5GNK,5HCX,5HCY,5HCZ,5HIB,5HIC,5UGB,5Y25,6D8E,6JZ0,6S89,6S8A,6VH4,6VHN,6VHP,7AEI,7AEM,7B85,7OXB,7SI1,7UKV,7ZYM,7ZYN,7ZYP,8A27,8A2A,8HY7

> <UniProt (SwissProt) Recommended Name of Target Chain>
Epidermal growth factor receptor

> <UniProt (SwissProt) Entry Name of Target Chain>
EGFR_HUMAN

> <UniProt (SwissProt) Primary ID of Target Chain>
P00533

> <UniProt (SwissProt) Secondary ID(s) of Target Chain>
O00688 O00732 P06268 Q14225 Q68GS5 Q92795 Q9BZS2 Q9GZX1 Q9H2C9 Q9H3C9 Q9UMD7 Q9UMD8 Q9UMG5

> <UniProt (SwissProt) Alternative ID(s) of Target Chain>


> <UniProt (TrEMBL) Submitted Name of Target Chain>


> <UniProt (TrEMBL) Entry Name of Target Chain>


> <UniProt (TrEMBL) Primary ID of Target Chain>


> <UniProt (TrEMBL) Secondary ID(s) of Target Chain>


> <UniProt (TrEMBL) Alternative ID(s) of Target Chain>


$$$$
Untitled Document-1
  Mrv0541 06191716202D          

 18 19  0  0  0  0            999 V2000
    7.0293   -5.1417    0.0000 C   0  0  0  0  0  0  0  0  0  0  0  0
    6.3146   -5.5542    0.0000 C   0  0  0  0  0  0  0  0  0  0  0  0
    6.3146   -6.3792    0.0000 C   0  0  0  0  0  0  0  0  0  0  0  0
    5.6001   -6.7917    0.0000 C   0  0  0  0  0  0  0  0  0  0  0  0
    4.8857   -6.3792    0.0000 C   0  0  0  0  0  0  0  0  0  0  0  0
    4.8857   -5.5542    0.0000 C   0  0  0  0  0  0  0  0  0  0  0  0
    5.6001   -5.1417    0.0000 C   0  0  0  0  0  0  0  0  0  0  0  0
    7.0293   -4.3167    0.0000 O   0  0  0  0  0  0  0  0  0  0  0  0
    7.7437   -5.5542    0.0000 N   0  0  0  0  0  0  0  0  0  0  0  0
    4.1712   -6.7917    0.0000 C   0  0  0  0  0  0  0  0  0  0  0  0
    7.0293   -6.7917    0.0000 O   0  0  0  0  0  0  0  0  0  0  0  0
    8.4582   -5.1417    0.0000 C   0  0  0  0  0  0  0  0  0  0  0  0
    8.4582   -4.3167    0.0000 C   0  0  0  0  0  0  0  0  0  0  0  0
    9.1726   -3.9042    0.0000 C   0  0  0  0  0  0  0  0  0  0  0  0
    9.8871   -4.3167    0.0000 C   0  0  0  0  0  0  0  0  0  0  0  0
    9.8871   -5.1417    0.0000 C   0  0  0  0  0  0  0  0  0  0  0  0
    9.1726   -5.5542    0.0000 C   0  0  0  0  0  0  0  0  0  0  0  0
   10.6015   -3.9042    0.0000 F   0  0  0  0  0  0  0  0  0  0  0  0
  1  2  1  0  0  0  0
  2  3  4  0  0  0  0
  3  4  4  0  0  0  0
  4  5  4  0  0  0  0
  5  6  4  0  0  0  0
  6  7  4  0  0  0  0
  2  7  4  0  0  0  0
  1  8  2  0  0  0  0
  1  9  1  0  0  0  0
  5 10  1  0  0  0  0
  3 11  1  0  0  0  0
 12 13  4  0  0  0  0
 13 14  4  0  0  0  0
 14 15  4  0  0  0  0
 15 16  4  0  0  0  0
 16 17  4  0  0  0  0
 12 17  4  0  0  0  0
 15 18  1  0  0  0  0
  9 12  1  0  0  0  0
M  END
> <From>
www.bindingDB.org

> <BindingDB Reactant_set_id>
408358

> <Ligand InChI>
InChI=1S/C14H12FNO2/c1-9-2-7-12(13(17)8-9)14(18)16-11-5-3-10(15)4-6-11/h2-8,17H,1H3,(H,16,18)

> <Ligand InChI Key>
HDPUBNMJMVDMBW-UHFFFAOYSA-N

> <BindingDB MonomerID>
234313

> <BindingDB Ligand Name>
N-(4-fluorophenyl)-2-hydroxy-4-methylbenzamide (15)

> <Target Name>
Epidermal growth factor receptor [645-1186]

> <Target Source Organism According to Curator or DataSource>


> <Ki (nM)>


> <IC50 (nM)>
 40170

> <Kd (nM)>


> <EC50 (nM)>


> <kon (M-1-s-1)>


> <koff (s-1)>


> <pH>
7.4

> <Temp C>
25.00

> <Curation/DataSource>
Curated from the literature by BindingDB

> <Article DOI>
10.3109/14756361003671060

> <BindingDB Entry DOI>
10.7270/Q2XW4HPN

> <PMID>
20583855

> <PubChem AID>
aid1802974

> <Patent Number>


> <Authors>
Zhu, ZW; Shi, L; Ruan, XM; Yang, Y; Li, HQ; Xu, SP; Zhu, HL

> <Institution>
Nanjing University

> <Link to Ligand in BindingDB>
http://www.bindingdb.org/bind/chemsearch/marvin/MolStructure.jsp?monomerid=234313

> <Link to Ligand-Target Pair in BindingDB>
http://www.bindingdb.org/jsp/dbsearch/PrimarySearch_ki.jsp?energyterm=kJ/mole&tag=pol&polymerid=10043&target=Epidermal+growth+factor+receptor+%5B645-1186%5D&column=ki&startPg=0&Increment=50&submit=Search

> <Link to Ligand-Target Pair in BindingDB>
http://www.bindingdb.org/jsp/dbsearch/PrimarySearch_ki.jsp?energyterm=kJ/mole&tag=r21&monomerid=234313&enzyme=Epidermal+growth+factor+receptor+%5B645-1186%5D&column=ki&startPg=0&Increment=50&submit=Search

> <Ligand HET ID in PDB>


> <PDB ID(s) for Ligand-Target Complex>


> <PubChem CID of Ligand>
5274037

> <PubChem SID of Ligand>
340094302

> <ChEBI ID of Ligand>


> <ChEMBL ID of Ligand>


> <DrugBank ID of Ligand>


> <IUPHAR_GRAC ID of Ligand>


> <KEGG ID of Ligand>


> <ZINC ID of Ligand>


> <Number of Protein Chains in Target (bigger than 1 implies a multichain complex)>
1

> <BindingDB Target Chain Sequence>
SIATGMVGALLLLLVVALGIGLFMRRRHIVRKRTLRRLLQERELVEPLTPSGEAPNQALLRILKETEFKKIKVLGSGAFGTVYKGLWIPEGEKVKIPVAIKELREATSPKANKEILDEAYVMASVDNPHVCRLLGICLTSTVQLITQLMPFGCLLDYVREHKDNIGSQYLLNWCVQIAKGMNYLEDRRLVHRDLAARNVLVKTPQHVKITDFGLAKLLGAEEKEYHAEGGKVPIKWMALESILHRIYTHQSDVWSYGVTVWELMTFGSKPYDGIPASEISSILEKGERLPQPPICTIDVYMIMVKCWMIDADSRPKFRELIIEFSKMARDPQRYLVIQGDERMHLPSPTDSNFYRALMDEEDMDDVVDADEYLIPQQGFFSSPSTSRTPLLSSLSATSNNSTVACIDRNGLQSCPIKEDSFLQRYSSDPTGALTEDSIDDTFLPVPEYINQSVPKRPAGSVQNPVYHNQPLNPAPSRDPHYQDPHSTAVGNPEYLNTVQPTCVNSTFDSPAHWAQKGSHQISLDNPDYQQDFFPKEAKPNGI

> <PDB ID(s) of Target Chain>
1M14,1M17,1XKK,1Z9I,2GS2,2GS6,2ITW,2ITX,2ITY,2J5E,2J5F,2J6M,2RF9,2RGP,3BEL,3GOP,3POZ,3VJO,3W2O,3W2P,3W2Q,3W2R,3W2S,3W32,3W33,4G5J,4I23,4JQ7,4JQ8,4JR3,4JRV,4LI5,4RJ4,4RJ5,4RJ6,4RJ7,4RJ8,4TKS,4WKQ,4WRG,4ZAU,5C8K,5C8M,5C8N,5CAL,5CAN,5CAO,5CAP,5CAQ,5CAS,5CAU,5CAV,5EDP,5EDQ,5EDR,5EM5,5EM6,5EM7,5EM8,5GNK,5HCX,5HCY,5HCZ,5HIB,5HIC,5UGB,5Y25,6D8E,6JZ0,6S89,6S8A,6VH4,6VHN,6VHP,7AEI,7AEM,7B85,7OXB,7SI1,7UKV,7ZYM,7ZYN,7ZYP,8A27,8A2A,8HY7

> <UniProt (SwissProt) Recommended Name of Target Chain>
Epidermal growth factor receptor

> <UniProt (SwissProt) Entry Name of Target Chain>
EGFR_HUMAN

> <UniProt (SwissProt) Primary ID of Target Chain>
P00533

> <UniProt (SwissProt) Secondary ID(s) of Target Chain>
O00688 O00732 P06268 Q14225 Q68GS5 Q92795 Q9BZS2 Q9GZX1 Q9H2C9 Q9H3C9 Q9UMD7 Q9UMD8 Q9UMG5

> <UniProt (SwissProt) Alternative ID(s) of Target Chain>


> <UniProt (TrEMBL) Submitted Name of Target Chain>


> <UniProt (TrEMBL) Entry Name of Target Chain>


> <UniProt (TrEMBL) Primary ID of Target Chain>


> <UniProt (TrEMBL) Secondary ID(s) of Target Chain>


> <UniProt (TrEMBL) Alternative ID(s) of Target Chain>


$$$$
Untitled Document-1
  Mrv0541 06191716202D          

 17 18  0  0  0  0            999 V2000
    6.6371   -5.1375    0.0000 C   0  0  0  0  0  0  0  0  0  0  0  0
    5.9227   -5.5500    0.0000 C   0  0  0  0  0  0  0  0  0  0  0  0
    5.9227   -6.3750    0.0000 C   0  0  0  0  0  0  0  0  0  0  0  0
    5.2082   -6.7875    0.0000 C   0  0  0  0  0  0  0  0  0  0  0  0
    4.4938   -6.3750    0.0000 C   0  0  0  0  0  0  0  0  0  0  0  0
    4.4938   -5.5500    0.0000 C   0  0  0  0  0  0  0  0  0  0  0  0
    5.2082   -5.1375    0.0000 C   0  0  0  0  0  0  0  0  0  0  0  0
    6.6371   -4.3125    0.0000 O   0  0  0  0  0  0  0  0  0  0  0  0
    7.3516   -5.5500    0.0000 N   0  0  0  0  0  0  0  0  0  0  0  0
    6.6371   -6.7875    0.0000 O   0  0  0  0  0  0  0  0  0  0  0  0
    8.0660   -5.1375    0.0000 C   0  0  0  0  0  0  0  0  0  0  0  0
    8.0660   -4.3125    0.0000 C   0  0  0  0  0  0  0  0  0  0  0  0
    8.7805   -3.9000    0.0000 C   0  0  0  0  0  0  0  0  0  0  0  0
    9.4949   -4.3125    0.0000 C   0  0  0  0  0  0  0  0  0  0  0  0
    9.4949   -5.1375    0.0000 C   0  0  0  0  0  0  0  0  0  0  0  0
    8.7805   -5.5500    0.0000 C   0  0  0  0  0  0  0  0  0  0  0  0
   10.2094   -3.9000    0.0000 Cl  0  0  0  0  0  0  0  0  0  0  0  0
  1  2  1  0  0  0  0
  2  3  4  0  0  0  0
  3  4  4  0  0  0  0
  4  5  4  0  0  0  0
  5  6  4  0  0  0  0
  6  7  4  0  0  0  0
  2  7  4  0  0  0  0
  1  8  2  0  0  0  0
  1  9  1  0  0  0  0
  3 10  1  0  0  0  0
 11 12  4  0  0  0  0
 12 13  4  0  0  0  0
 13 14  4  0  0  0  0
 14 15  4  0  0  0  0
 15 16  4  0  0  0  0
 11 16  4  0  0  0  0
 14 17  1  0  0  0  0
  9 11  1  0  0  0  0
M  END
> <From>
www.bindingDB.org

> <BindingDB Reactant_set_id>
408349

> <Ligand InChI>
InChI=1S/C13H10ClNO2/c14-9-5-7-10(8-6-9)15-13(17)11-3-1-2-4-12(11)16/h1-8,16H,(H,15,17)

> <Ligand InChI Key>
BSNNYLFMWONSIV-UHFFFAOYSA-N

> <BindingDB MonomerID>
234305

> <BindingDB Ligand Name>
N-(4-chlorophenyl)-2-hydroxybenzamide (6)

> <Target Name>
Epidermal growth factor receptor [645-1186]

> <Target Source Organism According to Curator or DataSource>


> <Ki (nM)>


> <IC50 (nM)>
 41760

> <Kd (nM)>


> <EC50 (nM)>


> <kon (M-1-s-1)>


> <koff (s-1)>


> <pH>
7.4

> <Temp C>
25.00

> <Curation/DataSource>
Curated from the literature by BindingDB

> <Article DOI>
10.3109/14756361003671060

> <BindingDB Entry DOI>
10.7270/Q2XW4HPN

> <PMID>
20583855

> <PubChem AID>
aid1802974

> <Patent Number>


> <Authors>
Zhu, ZW; Shi, L; Ruan, XM; Yang, Y; Li, HQ; Xu, SP; Zhu, HL

> <Institution>
Nanjing University

> <Link to Ligand in BindingDB>
http://www.bindingdb.org/bind/chemsearch/marvin/MolStructure.jsp?monomerid=234305

> <Link to Ligand-Target Pair in BindingDB>
http://www.bindingdb.org/jsp/dbsearch/PrimarySearch_ki.jsp?energyterm=kJ/mole&tag=pol&polymerid=10043&target=Epidermal+growth+factor+receptor+%5B645-1186%5D&column=ki&startPg=0&Increment=50&submit=Search

> <Link to Ligand-Target Pair in BindingDB>
http://www.bindingdb.org/jsp/dbsearch/PrimarySearch_ki.jsp?energyterm=kJ/mole&tag=r21&monomerid=234305&enzyme=Epidermal+growth+factor+receptor+%5B645-1186%5D&column=ki&startPg=0&Increment=50&submit=Search

> <Ligand HET ID in PDB>


> <PDB ID(s) for Ligand-Target Complex>


> <PubChem CID of Ligand>
77253

> <PubChem SID of Ligand>
340094294

> <ChEBI ID of Ligand>


> <ChEMBL ID of Ligand>


> <DrugBank ID of Ligand>


> <IUPHAR_GRAC ID of Ligand>


> <KEGG ID of Ligand>


> <ZINC ID of Ligand>


> <Number of Protein Chains in Target (bigger than 1 implies a multichain complex)>
1

> <BindingDB Target Chain Sequence>
SIATGMVGALLLLLVVALGIGLFMRRRHIVRKRTLRRLLQERELVEPLTPSGEAPNQALLRILKETEFKKIKVLGSGAFGTVYKGLWIPEGEKVKIPVAIKELREATSPKANKEILDEAYVMASVDNPHVCRLLGICLTSTVQLITQLMPFGCLLDYVREHKDNIGSQYLLNWCVQIAKGMNYLEDRRLVHRDLAARNVLVKTPQHVKITDFGLAKLLGAEEKEYHAEGGKVPIKWMALESILHRIYTHQSDVWSYGVTVWELMTFGSKPYDGIPASEISSILEKGERLPQPPICTIDVYMIMVKCWMIDADSRPKFRELIIEFSKMARDPQRYLVIQGDERMHLPSPTDSNFYRALMDEEDMDDVVDADEYLIPQQGFFSSPSTSRTPLLSSLSATSNNSTVACIDRNGLQSCPIKEDSFLQRYSSDPTGALTEDSIDDTFLPVPEYINQSVPKRPAGSVQNPVYHNQPLNPAPSRDPHYQDPHSTAVGNPEYLNTVQPTCVNSTFDSPAHWAQKGSHQISLDNPDYQQDFFPKEAKPNGI

> <PDB ID(s) of Target Chain>
1M14,1M17,1XKK,1Z9I,2GS2,2GS6,2ITW,2ITX,2ITY,2J5E,2J5F,2J6M,2RF9,2RGP,3BEL,3GOP,3POZ,3VJO,3W2O,3W2P,3W2Q,3W2R,3W2S,3W32,3W33,4G5J,4I23,4JQ7,4JQ8,4JR3,4JRV,4LI5,4RJ4,4RJ5,4RJ6,4RJ7,4RJ8,4TKS,4WKQ,4WRG,4ZAU,5C8K,5C8M,5C8N,5CAL,5CAN,5CAO,5CAP,5CAQ,5CAS,5CAU,5CAV,5EDP,5EDQ,5EDR,5EM5,5EM6,5EM7,5EM8,5GNK,5HCX,5HCY,5HCZ,5HIB,5HIC,5UGB,5Y25,6D8E,6JZ0,6S89,6S8A,6VH4,6VHN,6VHP,7AEI,7AEM,7B85,7OXB,7SI1,7UKV,7ZYM,7ZYN,7ZYP,8A27,8A2A,8HY7

> <UniProt (SwissProt) Recommended Name of Target Chain>
Epidermal growth factor receptor

> <UniProt (SwissProt) Entry Name of Target Chain>
EGFR_HUMAN

> <UniProt (SwissProt) Primary ID of Target Chain>
P00533

> <UniProt (SwissProt) Secondary ID(s) of Target Chain>
O00688 O00732 P06268 Q14225 Q68GS5 Q92795 Q9BZS2 Q9GZX1 Q9H2C9 Q9H3C9 Q9UMD7 Q9UMD8 Q9UMG5

> <UniProt (SwissProt) Alternative ID(s) of Target Chain>


> <UniProt (TrEMBL) Submitted Name of Target Chain>


> <UniProt (TrEMBL) Entry Name of Target Chain>


> <UniProt (TrEMBL) Primary ID of Target Chain>


> <UniProt (TrEMBL) Secondary ID(s) of Target Chain>


> <UniProt (TrEMBL) Alternative ID(s) of Target Chain>


$$$$
Untitled Document-1
  Mrv0541 06191716202D          

 18 19  0  0  0  0            999 V2000
    8.2473   -5.5550    0.0000 C   0  0  0  0  0  0  0  0  0  0  0  0
    8.9617   -5.1425    0.0000 C   0  0  0  0  0  0  0  0  0  0  0  0
    8.9617   -4.3175    0.0000 C   0  0  0  0  0  0  0  0  0  0  0  0
    9.6762   -3.9050    0.0000 C   0  0  0  0  0  0  0  0  0  0  0  0
   10.3906   -4.3175    0.0000 C   0  0  0  0  0  0  0  0  0  0  0  0
   10.3906   -5.1425    0.0000 C   0  0  0  0  0  0  0  0  0  0  0  0
    9.6762   -5.5550    0.0000 C   0  0  0  0  0  0  0  0  0  0  0  0
    8.2473   -6.3800    0.0000 O   0  0  0  0  0  0  0  0  0  0  0  0
    7.5328   -5.1425    0.0000 N   0  0  0  0  0  0  0  0  0  0  0  0
    8.2473   -3.9050    0.0000 O   0  0  0  0  0  0  0  0  0  0  0  0
    6.8184   -5.5550    0.0000 C   0  0  0  0  0  0  0  0  0  0  0  0
    6.8184   -6.3800    0.0000 C   0  0  0  0  0  0  0  0  0  0  0  0
    6.1039   -6.7925    0.0000 C   0  0  0  0  0  0  0  0  0  0  0  0
    5.3895   -6.3800    0.0000 C   0  0  0  0  0  0  0  0  0  0  0  0
    5.3895   -5.5550    0.0000 C   0  0  0  0  0  0  0  0  0  0  0  0
    6.1039   -5.1425    0.0000 C   0  0  0  0  0  0  0  0  0  0  0  0
    4.6750   -6.7925    0.0000 Cl  0  0  0  0  0  0  0  0  0  0  0  0
    7.5328   -6.7925    0.0000 Cl  0  0  0  0  0  0  0  0  0  0  0  0
  1  2  1  0  0  0  0
  2  3  4  0  0  0  0
  3  4  4  0  0  0  0
  4  5  4  0  0  0  0
  5  6  4  0  0  0  0
  6  7  4  0  0  0  0
  2  7  4  0  0  0  0
  1  8  2  0  0  0  0
  1  9  1  0  0  0  0
  3 10  1  0  0  0  0
 11 12  4  0  0  0  0
 12 13  4  0  0  0  0
 13 14  4  0  0  0  0
 14 15  4  0  0  0  0
 15 16  4  0  0  0  0
 11 16  4  0  0  0  0
 14 17  1  0  0  0  0
 12 18  1  0  0  0  0
  9 11  1  0  0  0  0
M  END
> <From>
www.bindingDB.org

> <BindingDB Reactant_set_id>
408352

> <Ligand InChI>
InChI=1S/C13H9Cl2NO2/c14-8-5-6-11(10(15)7-8)16-13(18)9-3-1-2-4-12(9)17/h1-7,17H,(H,16,18)

> <Ligand InChI Key>
GFUKRQFBTHGSIC-UHFFFAOYSA-N

> <BindingDB MonomerID>
234308

> <BindingDB Ligand Name>
N-(2,4-dichlorophenyl)-2-hydroxybenzamide (9)

> <Target Name>
Epidermal growth factor receptor [645-1186]

> <Target Source Organism According to Curator or DataSource>


> <Ki (nM)>


> <IC50 (nM)>
 45290

> <Kd (nM)>


> <EC50 (nM)>


> <kon (M-1-s-1)>


> <koff (s-1)>


> <pH>
7.4

> <Temp C>
25.00

> <Curation/DataSource>
Curated from the literature by BindingDB

> <Article DOI>
10.3109/14756361003671060

> <BindingDB Entry DOI>
10.7270/Q2XW4HPN

> <PMID>
20583855

> <PubChem AID>
aid1802974

> <Patent Number>


> <Authors>
Zhu, ZW; Shi, L; Ruan, XM; Yang, Y; Li, HQ; Xu, SP; Zhu, HL

> <Institution>
Nanjing University

> <Link to Ligand in BindingDB>
http://www.bindingdb.org/bind/chemsearch/marvin/MolStructure.jsp?monomerid=234308

> <Link to Ligand-Target Pair in BindingDB>
http://www.bindingdb.org/jsp/dbsearch/PrimarySearch_ki.jsp?energyterm=kJ/mole&tag=pol&polymerid=10043&target=Epidermal+growth+factor+receptor+%5B645-1186%5D&column=ki&startPg=0&Increment=50&submit=Search

> <Link to Ligand-Target Pair in BindingDB>
http://www.bindingdb.org/jsp/dbsearch/PrimarySearch_ki.jsp?energyterm=kJ/mole&tag=r21&monomerid=234308&enzyme=Epidermal+growth+factor+receptor+%5B645-1186%5D&column=ki&startPg=0&Increment=50&submit=Search

> <Ligand HET ID in PDB>


> <PDB ID(s) for Ligand-Target Complex>


> <PubChem CID of Ligand>
11837097

> <PubChem SID of Ligand>
340094297

> <ChEBI ID of Ligand>


> <ChEMBL ID of Ligand>


> <DrugBank ID of Ligand>


> <IUPHAR_GRAC ID of Ligand>


> <KEGG ID of Ligand>


> <ZINC ID of Ligand>


> <Number of Protein Chains in Target (bigger than 1 implies a multichain complex)>
1

> <BindingDB Target Chain Sequence>
SIATGMVGALLLLLVVALGIGLFMRRRHIVRKRTLRRLLQERELVEPLTPSGEAPNQALLRILKETEFKKIKVLGSGAFGTVYKGLWIPEGEKVKIPVAIKELREATSPKANKEILDEAYVMASVDNPHVCRLLGICLTSTVQLITQLMPFGCLLDYVREHKDNIGSQYLLNWCVQIAKGMNYLEDRRLVHRDLAARNVLVKTPQHVKITDFGLAKLLGAEEKEYHAEGGKVPIKWMALESILHRIYTHQSDVWSYGVTVWELMTFGSKPYDGIPASEISSILEKGERLPQPPICTIDVYMIMVKCWMIDADSRPKFRELIIEFSKMARDPQRYLVIQGDERMHLPSPTDSNFYRALMDEEDMDDVVDADEYLIPQQGFFSSPSTSRTPLLSSLSATSNNSTVACIDRNGLQSCPIKEDSFLQRYSSDPTGALTEDSIDDTFLPVPEYINQSVPKRPAGSVQNPVYHNQPLNPAPSRDPHYQDPHSTAVGNPEYLNTVQPTCVNSTFDSPAHWAQKGSHQISLDNPDYQQDFFPKEAKPNGI

> <PDB ID(s) of Target Chain>
1M14,1M17,1XKK,1Z9I,2GS2,2GS6,2ITW,2ITX,2ITY,2J5E,2J5F,2J6M,2RF9,2RGP,3BEL,3GOP,3POZ,3VJO,3W2O,3W2P,3W2Q,3W2R,3W2S,3W32,3W33,4G5J,4I23,4JQ7,4JQ8,4JR3,4JRV,4LI5,4RJ4,4RJ5,4RJ6,4RJ7,4RJ8,4TKS,4WKQ,4WRG,4ZAU,5C8K,5C8M,5C8N,5CAL,5CAN,5CAO,5CAP,5CAQ,5CAS,5CAU,5CAV,5EDP,5EDQ,5EDR,5EM5,5EM6,5EM7,5EM8,5GNK,5HCX,5HCY,5HCZ,5HIB,5HIC,5UGB,5Y25,6D8E,6JZ0,6S89,6S8A,6VH4,6VHN,6VHP,7AEI,7AEM,7B85,7OXB,7SI1,7UKV,7ZYM,7ZYN,7ZYP,8A27,8A2A,8HY7

> <UniProt (SwissProt) Recommended Name of Target Chain>
Epidermal growth factor receptor

> <UniProt (SwissProt) Entry Name of Target Chain>
EGFR_HUMAN

> <UniProt (SwissProt) Primary ID of Target Chain>
P00533

> <UniProt (SwissProt) Secondary ID(s) of Target Chain>
O00688 O00732 P06268 Q14225 Q68GS5 Q92795 Q9BZS2 Q9GZX1 Q9H2C9 Q9H3C9 Q9UMD7 Q9UMD8 Q9UMG5

> <UniProt (SwissProt) Alternative ID(s) of Target Chain>


> <UniProt (TrEMBL) Submitted Name of Target Chain>


> <UniProt (TrEMBL) Entry Name of Target Chain>


> <UniProt (TrEMBL) Primary ID of Target Chain>


> <UniProt (TrEMBL) Secondary ID(s) of Target Chain>


> <UniProt (TrEMBL) Alternative ID(s) of Target Chain>


$$$$
Untitled Document-1
  Mrv0541 06191716202D          

 16 17  0  0  0  0            999 V2000
    7.0678   -5.0886    0.0000 C   0  0  0  0  0  0  0  0  0  0  0  0
    6.3533   -5.5011    0.0000 C   0  0  0  0  0  0  0  0  0  0  0  0
    6.3533   -6.3261    0.0000 C   0  0  0  0  0  0  0  0  0  0  0  0
    5.6389   -6.7386    0.0000 C   0  0  0  0  0  0  0  0  0  0  0  0
    4.9244   -6.3261    0.0000 C   0  0  0  0  0  0  0  0  0  0  0  0
    4.9244   -5.5011    0.0000 C   0  0  0  0  0  0  0  0  0  0  0  0
    5.6389   -5.0886    0.0000 C   0  0  0  0  0  0  0  0  0  0  0  0
    7.0678   -4.2636    0.0000 O   0  0  0  0  0  0  0  0  0  0  0  0
    7.7822   -5.5011    0.0000 N   0  0  0  0  0  0  0  0  0  0  0  0
    8.4967   -5.0886    0.0000 C   0  0  0  0  0  0  0  0  0  0  0  0
    8.4967   -4.2636    0.0000 C   0  0  0  0  0  0  0  0  0  0  0  0
    9.2111   -3.8511    0.0000 C   0  0  0  0  0  0  0  0  0  0  0  0
    9.9256   -4.2636    0.0000 C   0  0  0  0  0  0  0  0  0  0  0  0
    9.9256   -5.0886    0.0000 C   0  0  0  0  0  0  0  0  0  0  0  0
    9.2111   -5.5011    0.0000 C   0  0  0  0  0  0  0  0  0  0  0  0
    7.0678   -6.7386    0.0000 O   0  0  0  0  0  0  0  0  0  0  0  0
  1  2  1  0  0  0  0
  2  3  4  0  0  0  0
  3  4  4  0  0  0  0
  4  5  4  0  0  0  0
  5  6  4  0  0  0  0
  6  7  4  0  0  0  0
  2  7  4  0  0  0  0
  1  8  2  0  0  0  0
  1  9  1  0  0  0  0
 10 11  4  0  0  0  0
 11 12  4  0  0  0  0
 12 13  4  0  0  0  0
 13 14  4  0  0  0  0
 14 15  4  0  0  0  0
 10 15  4  0  0  0  0
  9 10  1  0  0  0  0
  3 16  1  0  0  0  0
M  END
> <From>
www.bindingDB.org

> <BindingDB Reactant_set_id>
408344

> <Ligand InChI>
InChI=1S/C13H11NO2/c15-12-9-5-4-8-11(12)13(16)14-10-6-2-1-3-7-10/h1-9,15H,(H,14,16)

> <Ligand InChI Key>
WKEDVNSFRWHDNR-UHFFFAOYSA-N

> <BindingDB MonomerID>
234300

> <BindingDB Ligand Name>
2-Hydroxy-N-phenylbenzamide (1)

> <Target Name>
Epidermal growth factor receptor [645-1186]

> <Target Source Organism According to Curator or DataSource>


> <Ki (nM)>


> <IC50 (nM)>
 50000

> <Kd (nM)>


> <EC50 (nM)>


> <kon (M-1-s-1)>


> <koff (s-1)>


> <pH>
7.4

> <Temp C>
25.00

> <Curation/DataSource>
Curated from the literature by BindingDB

> <Article DOI>
10.3109/14756361003671060

> <BindingDB Entry DOI>
10.7270/Q2XW4HPN

> <PMID>
20583855

> <PubChem AID>
aid1802974

> <Patent Number>


> <Authors>
Zhu, ZW; Shi, L; Ruan, XM; Yang, Y; Li, HQ; Xu, SP; Zhu, HL

> <Institution>
Nanjing University

> <Link to Ligand in BindingDB>
http://www.bindingdb.org/bind/chemsearch/marvin/MolStructure.jsp?monomerid=234300

> <Link to Ligand-Target Pair in BindingDB>
http://www.bindingdb.org/jsp/dbsearch/PrimarySearch_ki.jsp?energyterm=kJ/mole&tag=pol&polymerid=10043&target=Epidermal+growth+factor+receptor+%5B645-1186%5D&column=ki&startPg=0&Increment=50&submit=Search

> <Link to Ligand-Target Pair in BindingDB>
http://www.bindingdb.org/jsp/dbsearch/PrimarySearch_ki.jsp?energyterm=kJ/mole&tag=r21&monomerid=234300&enzyme=Epidermal+growth+factor+receptor+%5B645-1186%5D&column=ki&startPg=0&Increment=50&submit=Search

> <Ligand HET ID in PDB>
SLI

> <PDB ID(s) for Ligand-Target Complex>
3AE2

> <PubChem CID of Ligand>
6872

> <PubChem SID of Ligand>
340094289

> <ChEBI ID of Ligand>


> <ChEMBL ID of Ligand>


> <DrugBank ID of Ligand>


> <IUPHAR_GRAC ID of Ligand>


> <KEGG ID of Ligand>
C18915

> <ZINC ID of Ligand>


> <Number of Protein Chains in Target (bigger than 1 implies a multichain complex)>
1

> <BindingDB Target Chain Sequence>
SIATGMVGALLLLLVVALGIGLFMRRRHIVRKRTLRRLLQERELVEPLTPSGEAPNQALLRILKETEFKKIKVLGSGAFGTVYKGLWIPEGEKVKIPVAIKELREATSPKANKEILDEAYVMASVDNPHVCRLLGICLTSTVQLITQLMPFGCLLDYVREHKDNIGSQYLLNWCVQIAKGMNYLEDRRLVHRDLAARNVLVKTPQHVKITDFGLAKLLGAEEKEYHAEGGKVPIKWMALESILHRIYTHQSDVWSYGVTVWELMTFGSKPYDGIPASEISSILEKGERLPQPPICTIDVYMIMVKCWMIDADSRPKFRELIIEFSKMARDPQRYLVIQGDERMHLPSPTDSNFYRALMDEEDMDDVVDADEYLIPQQGFFSSPSTSRTPLLSSLSATSNNSTVACIDRNGLQSCPIKEDSFLQRYSSDPTGALTEDSIDDTFLPVPEYINQSVPKRPAGSVQNPVYHNQPLNPAPSRDPHYQDPHSTAVGNPEYLNTVQPTCVNSTFDSPAHWAQKGSHQISLDNPDYQQDFFPKEAKPNGI

> <PDB ID(s) of Target Chain>
1M14,1M17,1XKK,1Z9I,2GS2,2GS6,2ITW,2ITX,2ITY,2J5E,2J5F,2J6M,2RF9,2RGP,3BEL,3GOP,3POZ,3VJO,3W2O,3W2P,3W2Q,3W2R,3W2S,3W32,3W33,4G5J,4I23,4JQ7,4JQ8,4JR3,4JRV,4LI5,4RJ4,4RJ5,4RJ6,4RJ7,4RJ8,4TKS,4WKQ,4WRG,4ZAU,5C8K,5C8M,5C8N,5CAL,5CAN,5CAO,5CAP,5CAQ,5CAS,5CAU,5CAV,5EDP,5EDQ,5EDR,5EM5,5EM6,5EM7,5EM8,5GNK,5HCX,5HCY,5HCZ,5HIB,5HIC,5UGB,5Y25,6D8E,6JZ0,6S89,6S8A,6VH4,6VHN,6VHP,7AEI,7AEM,7B85,7OXB,7SI1,7UKV,7ZYM,7ZYN,7ZYP,8A27,8A2A,8HY7

> <UniProt (SwissProt) Recommended Name of Target Chain>
Epidermal growth factor receptor

> <UniProt (SwissProt) Entry Name of Target Chain>
EGFR_HUMAN

> <UniProt (SwissProt) Primary ID of Target Chain>
P00533

> <UniProt (SwissProt) Secondary ID(s) of Target Chain>
O00688 O00732 P06268 Q14225 Q68GS5 Q92795 Q9BZS2 Q9GZX1 Q9H2C9 Q9H3C9 Q9UMD7 Q9UMD8 Q9UMG5

> <UniProt (SwissProt) Alternative ID(s) of Target Chain>


> <UniProt (TrEMBL) Submitted Name of Target Chain>


> <UniProt (TrEMBL) Entry Name of Target Chain>


> <UniProt (TrEMBL) Primary ID of Target Chain>


> <UniProt (TrEMBL) Secondary ID(s) of Target Chain>


> <UniProt (TrEMBL) Alternative ID(s) of Target Chain>


$$$$
Untitled Document-1
  Mrv0541 06191716202D          

 17 18  0  0  0  0            999 V2000
    6.6754   -5.1417    0.0000 C   0  0  0  0  0  0  0  0  0  0  0  0
    5.9609   -5.5542    0.0000 C   0  0  0  0  0  0  0  0  0  0  0  0
    5.9609   -6.3792    0.0000 C   0  0  0  0  0  0  0  0  0  0  0  0
    5.2465   -6.7917    0.0000 C   0  0  0  0  0  0  0  0  0  0  0  0
    4.5320   -6.3792    0.0000 C   0  0  0  0  0  0  0  0  0  0  0  0
    4.5320   -5.5542    0.0000 C   0  0  0  0  0  0  0  0  0  0  0  0
    5.2465   -5.1417    0.0000 C   0  0  0  0  0  0  0  0  0  0  0  0
    6.6754   -4.3167    0.0000 O   0  0  0  0  0  0  0  0  0  0  0  0
    7.3898   -5.5542    0.0000 N   0  0  0  0  0  0  0  0  0  0  0  0
    6.6754   -6.7917    0.0000 O   0  0  0  0  0  0  0  0  0  0  0  0
    8.1043   -5.1417    0.0000 C   0  0  0  0  0  0  0  0  0  0  0  0
    8.1043   -4.3167    0.0000 C   0  0  0  0  0  0  0  0  0  0  0  0
    8.8187   -3.9042    0.0000 C   0  0  0  0  0  0  0  0  0  0  0  0
    9.5332   -4.3167    0.0000 C   0  0  0  0  0  0  0  0  0  0  0  0
    9.5332   -5.1417    0.0000 C   0  0  0  0  0  0  0  0  0  0  0  0
    8.8187   -5.5542    0.0000 C   0  0  0  0  0  0  0  0  0  0  0  0
   10.2476   -3.9042    0.0000 F   0  0  0  0  0  0  0  0  0  0  0  0
  1  2  1  0  0  0  0
  2  3  4  0  0  0  0
  3  4  4  0  0  0  0
  4  5  4  0  0  0  0
  5  6  4  0  0  0  0
  6  7  4  0  0  0  0
  2  7  4  0  0  0  0
  1  8  2  0  0  0  0
  1  9  1  0  0  0  0
  3 10  1  0  0  0  0
 11 12  4  0  0  0  0
 12 13  4  0  0  0  0
 13 14  4  0  0  0  0
 14 15  4  0  0  0  0
 15 16  4  0  0  0  0
 11 16  4  0  0  0  0
 14 17  1  0  0  0  0
  9 11  1  0  0  0  0
M  END
> <From>
www.bindingDB.org

> <BindingDB Reactant_set_id>
408348

> <Ligand InChI>
InChI=1S/C13H10FNO2/c14-9-5-7-10(8-6-9)15-13(17)11-3-1-2-4-12(11)16/h1-8,16H,(H,15,17)

> <Ligand InChI Key>
JRFWTJJEUHYSHV-UHFFFAOYSA-N

> <BindingDB MonomerID>
234304

> <BindingDB Ligand Name>
N-(4-fluorophenyl)-2-hydroxybenzamide (5)

> <Target Name>
Epidermal growth factor receptor [645-1186]

> <Target Source Organism According to Curator or DataSource>


> <Ki (nM)>


> <IC50 (nM)>
 50000

> <Kd (nM)>


> <EC50 (nM)>


> <kon (M-1-s-1)>


> <koff (s-1)>


> <pH>
7.4

> <Temp C>
25.00

> <Curation/DataSource>
Curated from the literature by BindingDB

> <Article DOI>
10.3109/14756361003671060

> <BindingDB Entry DOI>
10.7270/Q2XW4HPN

> <PMID>
20583855

> <PubChem AID>
aid1802974

> <Patent Number>


> <Authors>
Zhu, ZW; Shi, L; Ruan, XM; Yang, Y; Li, HQ; Xu, SP; Zhu, HL

> <Institution>
Nanjing University

> <Link to Ligand in BindingDB>
http://www.bindingdb.org/bind/chemsearch/marvin/MolStructure.jsp?monomerid=234304

> <Link to Ligand-Target Pair in BindingDB>
http://www.bindingdb.org/jsp/dbsearch/PrimarySearch_ki.jsp?energyterm=kJ/mole&tag=pol&polymerid=10043&target=Epidermal+growth+factor+receptor+%5B645-1186%5D&column=ki&startPg=0&Increment=50&submit=Search

> <Link to Ligand-Target Pair in BindingDB>
http://www.bindingdb.org/jsp/dbsearch/PrimarySearch_ki.jsp?energyterm=kJ/mole&tag=r21&monomerid=234304&enzyme=Epidermal+growth+factor+receptor+%5B645-1186%5D&column=ki&startPg=0&Increment=50&submit=Search

> <Ligand HET ID in PDB>


> <PDB ID(s) for Ligand-Target Complex>


> <PubChem CID of Ligand>
478809

> <PubChem SID of Ligand>
340094293

> <ChEBI ID of Ligand>


> <ChEMBL ID of Ligand>


> <DrugBank ID of Ligand>


> <IUPHAR_GRAC ID of Ligand>


> <KEGG ID of Ligand>


> <ZINC ID of Ligand>


> <Number of Protein Chains in Target (bigger than 1 implies a multichain complex)>
1

> <BindingDB Target Chain Sequence>
SIATGMVGALLLLLVVALGIGLFMRRRHIVRKRTLRRLLQERELVEPLTPSGEAPNQALLRILKETEFKKIKVLGSGAFGTVYKGLWIPEGEKVKIPVAIKELREATSPKANKEILDEAYVMASVDNPHVCRLLGICLTSTVQLITQLMPFGCLLDYVREHKDNIGSQYLLNWCVQIAKGMNYLEDRRLVHRDLAARNVLVKTPQHVKITDFGLAKLLGAEEKEYHAEGGKVPIKWMALESILHRIYTHQSDVWSYGVTVWELMTFGSKPYDGIPASEISSILEKGERLPQPPICTIDVYMIMVKCWMIDADSRPKFRELIIEFSKMARDPQRYLVIQGDERMHLPSPTDSNFYRALMDEEDMDDVVDADEYLIPQQGFFSSPSTSRTPLLSSLSATSNNSTVACIDRNGLQSCPIKEDSFLQRYSSDPTGALTEDSIDDTFLPVPEYINQSVPKRPAGSVQNPVYHNQPLNPAPSRDPHYQDPHSTAVGNPEYLNTVQPTCVNSTFDSPAHWAQKGSHQISLDNPDYQQDFFPKEAKPNGI

> <PDB ID(s) of Target Chain>
1M14,1M17,1XKK,1Z9I,2GS2,2GS6,2ITW,2ITX,2ITY,2J5E,2J5F,2J6M,2RF9,2RGP,3BEL,3GOP,3POZ,3VJO,3W2O,3W2P,3W2Q,3W2R,3W2S,3W32,3W33,4G5J,4I23,4JQ7,4JQ8,4JR3,4JRV,4LI5,4RJ4,4RJ5,4RJ6,4RJ7,4RJ8,4TKS,4WKQ,4WRG,4ZAU,5C8K,5C8M,5C8N,5CAL,5CAN,5CAO,5CAP,5CAQ,5CAS,5CAU,5CAV,5EDP,5EDQ,5EDR,5EM5,5EM6,5EM7,5EM8,5GNK,5HCX,5HCY,5HCZ,5HIB,5HIC,5UGB,5Y25,6D8E,6JZ0,6S89,6S8A,6VH4,6VHN,6VHP,7AEI,7AEM,7B85,7OXB,7SI1,7UKV,7ZYM,7ZYN,7ZYP,8A27,8A2A,8HY7

> <UniProt (SwissProt) Recommended Name of Target Chain>
Epidermal growth factor receptor

> <UniProt (SwissProt) Entry Name of Target Chain>
EGFR_HUMAN

> <UniProt (SwissProt) Primary ID of Target Chain>
P00533

> <UniProt (SwissProt) Secondary ID(s) of Target Chain>
O00688 O00732 P06268 Q14225 Q68GS5 Q92795 Q9BZS2 Q9GZX1 Q9H2C9 Q9H3C9 Q9UMD7 Q9UMD8 Q9UMG5

> <UniProt (SwissProt) Alternative ID(s) of Target Chain>


> <UniProt (TrEMBL) Submitted Name of Target Chain>


> <UniProt (TrEMBL) Entry Name of Target Chain>


> <UniProt (TrEMBL) Primary ID of Target Chain>


> <UniProt (TrEMBL) Secondary ID(s) of Target Chain>


> <UniProt (TrEMBL) Alternative ID(s) of Target Chain>


$$$$
Untitled Document-1
  Mrv0541 06191716202D          

 19 20  0  0  0  0            999 V2000
    7.1404   -4.7305    0.0000 C   0  0  0  0  0  0  0  0  0  0  0  0
    6.4259   -5.1430    0.0000 C   0  0  0  0  0  0  0  0  0  0  0  0
    6.4259   -5.9680    0.0000 C   0  0  0  0  0  0  0  0  0  0  0  0
    5.7115   -6.3805    0.0000 C   0  0  0  0  0  0  0  0  0  0  0  0
    4.9970   -5.9680    0.0000 C   0  0  0  0  0  0  0  0  0  0  0  0
    4.9970   -5.1430    0.0000 C   0  0  0  0  0  0  0  0  0  0  0  0
    5.7115   -4.7305    0.0000 C   0  0  0  0  0  0  0  0  0  0  0  0
    7.1404   -3.9055    0.0000 O   0  0  0  0  0  0  0  0  0  0  0  0
    7.8548   -5.1430    0.0000 N   0  0  0  0  0  0  0  0  0  0  0  0
    7.1404   -6.3805    0.0000 O   0  0  0  0  0  0  0  0  0  0  0  0
    8.5693   -4.7305    0.0000 C   0  0  0  0  0  0  0  0  0  0  0  0
    8.5693   -3.9055    0.0000 C   0  0  0  0  0  0  0  0  0  0  0  0
    9.2840   -3.4930    0.0000 C   0  0  0  0  0  0  0  0  0  0  0  0
    9.9985   -3.9055    0.0000 C   0  0  0  0  0  0  0  0  0  0  0  0
    9.9985   -4.7305    0.0000 C   0  0  0  0  0  0  0  0  0  0  0  0
    9.2840   -5.1430    0.0000 C   0  0  0  0  0  0  0  0  0  0  0  0
   10.7129   -3.4930    0.0000 F   0  0  0  0  0  0  0  0  0  0  0  0
    4.2826   -4.7305    0.0000 Br  0  0  0  0  0  0  0  0  0  0  0  0
    5.7115   -7.2055    0.0000 Br  0  0  0  0  0  0  0  0  0  0  0  0
  1  2  1  0  0  0  0
  2  3  4  0  0  0  0
  3  4  4  0  0  0  0
  4  5  4  0  0  0  0
  5  6  4  0  0  0  0
  6  7  4  0  0  0  0
  2  7  4  0  0  0  0
  1  8  2  0  0  0  0
  1  9  1  0  0  0  0
  3 10  1  0  0  0  0
 11 12  4  0  0  0  0
 12 13  4  0  0  0  0
 13 14  4  0  0  0  0
 14 15  4  0  0  0  0
 15 16  4  0  0  0  0
 11 16  4  0  0  0  0
 14 17  1  0  0  0  0
  9 11  1  0  0  0  0
  6 18  1  0  0  0  0
  4 19  1  0  0  0  0
M  END
> <From>
www.bindingDB.org

> <BindingDB Reactant_set_id>
408372

> <Ligand InChI>
InChI=1S/C13H8Br2FNO2/c14-7-5-10(12(18)11(15)6-7)13(19)17-9-3-1-8(16)2-4-9/h1-6,18H,(H,17,19)

> <Ligand InChI Key>
WXOUZNPPDSWDGY-UHFFFAOYSA-N

> <BindingDB MonomerID>
234327

> <BindingDB Ligand Name>
3,5-Dibromo-N-(4-fluorophenyl)-2-hydroxybenzamide (29)

> <Target Name>
Epidermal growth factor receptor [645-1186]

> <Target Source Organism According to Curator or DataSource>


> <Ki (nM)>


> <IC50 (nM)>
 50000

> <Kd (nM)>


> <EC50 (nM)>


> <kon (M-1-s-1)>


> <koff (s-1)>


> <pH>
7.4

> <Temp C>
25.00

> <Curation/DataSource>
Curated from the literature by BindingDB

> <Article DOI>
10.3109/14756361003671060

> <BindingDB Entry DOI>
10.7270/Q2XW4HPN

> <PMID>
20583855

> <PubChem AID>
aid1802974

> <Patent Number>


> <Authors>
Zhu, ZW; Shi, L; Ruan, XM; Yang, Y; Li, HQ; Xu, SP; Zhu, HL

> <Institution>
Nanjing University

> <Link to Ligand in BindingDB>
http://www.bindingdb.org/bind/chemsearch/marvin/MolStructure.jsp?monomerid=234327

> <Link to Ligand-Target Pair in BindingDB>
http://www.bindingdb.org/jsp/dbsearch/PrimarySearch_ki.jsp?energyterm=kJ/mole&tag=pol&polymerid=10043&target=Epidermal+growth+factor+receptor+%5B645-1186%5D&column=ki&startPg=0&Increment=50&submit=Search

> <Link to Ligand-Target Pair in BindingDB>
http://www.bindingdb.org/jsp/dbsearch/PrimarySearch_ki.jsp?energyterm=kJ/mole&tag=r21&monomerid=234327&enzyme=Epidermal+growth+factor+receptor+%5B645-1186%5D&column=ki&startPg=0&Increment=50&submit=Search

> <Ligand HET ID in PDB>


> <PDB ID(s) for Ligand-Target Complex>


> <PubChem CID of Ligand>
352410

> <PubChem SID of Ligand>
340094316

> <ChEBI ID of Ligand>


> <ChEMBL ID of Ligand>


> <DrugBank ID of Ligand>


> <IUPHAR_GRAC ID of Ligand>


> <KEGG ID of Ligand>


> <ZINC ID of Ligand>


> <Number of Protein Chains in Target (bigger than 1 implies a multichain complex)>
1

> <BindingDB Target Chain Sequence>
SIATGMVGALLLLLVVALGIGLFMRRRHIVRKRTLRRLLQERELVEPLTPSGEAPNQALLRILKETEFKKIKVLGSGAFGTVYKGLWIPEGEKVKIPVAIKELREATSPKANKEILDEAYVMASVDNPHVCRLLGICLTSTVQLITQLMPFGCLLDYVREHKDNIGSQYLLNWCVQIAKGMNYLEDRRLVHRDLAARNVLVKTPQHVKITDFGLAKLLGAEEKEYHAEGGKVPIKWMALESILHRIYTHQSDVWSYGVTVWELMTFGSKPYDGIPASEISSILEKGERLPQPPICTIDVYMIMVKCWMIDADSRPKFRELIIEFSKMARDPQRYLVIQGDERMHLPSPTDSNFYRALMDEEDMDDVVDADEYLIPQQGFFSSPSTSRTPLLSSLSATSNNSTVACIDRNGLQSCPIKEDSFLQRYSSDPTGALTEDSIDDTFLPVPEYINQSVPKRPAGSVQNPVYHNQPLNPAPSRDPHYQDPHSTAVGNPEYLNTVQPTCVNSTFDSPAHWAQKGSHQISLDNPDYQQDFFPKEAKPNGI

> <PDB ID(s) of Target Chain>
1M14,1M17,1XKK,1Z9I,2GS2,2GS6,2ITW,2ITX,2ITY,2J5E,2J5F,2J6M,2RF9,2RGP,3BEL,3GOP,3POZ,3VJO,3W2O,3W2P,3W2Q,3W2R,3W2S,3W32,3W33,4G5J,4I23,4JQ7,4JQ8,4JR3,4JRV,4LI5,4RJ4,4RJ5,4RJ6,4RJ7,4RJ8,4TKS,4WKQ,4WRG,4ZAU,5C8K,5C8M,5C8N,5CAL,5CAN,5CAO,5CAP,5CAQ,5CAS,5CAU,5CAV,5EDP,5EDQ,5EDR,5EM5,5EM6,5EM7,5EM8,5GNK,5HCX,5HCY,5HCZ,5HIB,5HIC,5UGB,5Y25,6D8E,6JZ0,6S89,6S8A,6VH4,6VHN,6VHP,7AEI,7AEM,7B85,7OXB,7SI1,7UKV,7ZYM,7ZYN,7ZYP,8A27,8A2A,8HY7

> <UniProt (SwissProt) Recommended Name of Target Chain>
Epidermal growth factor receptor

> <UniProt (SwissProt) Entry Name of Target Chain>
EGFR_HUMAN

> <UniProt (SwissProt) Primary ID of Target Chain>
P00533

> <UniProt (SwissProt) Secondary ID(s) of Target Chain>
O00688 O00732 P06268 Q14225 Q68GS5 Q92795 Q9BZS2 Q9GZX1 Q9H2C9 Q9H3C9 Q9UMD7 Q9UMD8 Q9UMG5

> <UniProt (SwissProt) Alternative ID(s) of Target Chain>


> <UniProt (TrEMBL) Submitted Name of Target Chain>


> <UniProt (TrEMBL) Entry Name of Target Chain>


> <UniProt (TrEMBL) Primary ID of Target Chain>


> <UniProt (TrEMBL) Secondary ID(s) of Target Chain>


> <UniProt (TrEMBL) Alternative ID(s) of Target Chain>


$$$$
Untitled Document-1
  Mrv0541 06191716202D          

 17 18  0  0  0  0            999 V2000
    6.6253   -5.1417    0.0000 C   0  0  0  0  0  0  0  0  0  0  0  0
    5.9109   -5.5542    0.0000 C   0  0  0  0  0  0  0  0  0  0  0  0
    5.9109   -6.3792    0.0000 C   0  0  0  0  0  0  0  0  0  0  0  0
    5.1964   -6.7917    0.0000 C   0  0  0  0  0  0  0  0  0  0  0  0
    4.4820   -6.3792    0.0000 C   0  0  0  0  0  0  0  0  0  0  0  0
    4.4820   -5.5542    0.0000 C   0  0  0  0  0  0  0  0  0  0  0  0
    5.1964   -5.1417    0.0000 C   0  0  0  0  0  0  0  0  0  0  0  0
    6.6253   -4.3167    0.0000 O   0  0  0  0  0  0  0  0  0  0  0  0
    7.3398   -5.5542    0.0000 N   0  0  0  0  0  0  0  0  0  0  0  0
    6.6253   -6.7917    0.0000 O   0  0  0  0  0  0  0  0  0  0  0  0
    8.0542   -5.1417    0.0000 C   0  0  0  0  0  0  0  0  0  0  0  0
    8.0542   -4.3167    0.0000 C   0  0  0  0  0  0  0  0  0  0  0  0
    8.7687   -3.9042    0.0000 C   0  0  0  0  0  0  0  0  0  0  0  0
    9.4831   -4.3167    0.0000 C   0  0  0  0  0  0  0  0  0  0  0  0
    9.4831   -5.1417    0.0000 C   0  0  0  0  0  0  0  0  0  0  0  0
    8.7687   -5.5542    0.0000 C   0  0  0  0  0  0  0  0  0  0  0  0
   10.1978   -3.9042    0.0000 Br  0  0  0  0  0  0  0  0  0  0  0  0
  1  2  1  0  0  0  0
  2  3  4  0  0  0  0
  3  4  4  0  0  0  0
  4  5  4  0  0  0  0
  5  6  4  0  0  0  0
  6  7  4  0  0  0  0
  2  7  4  0  0  0  0
  1  8  2  0  0  0  0
  1  9  1  0  0  0  0
  3 10  1  0  0  0  0
 11 12  4  0  0  0  0
 12 13  4  0  0  0  0
 13 14  4  0  0  0  0
 14 15  4  0  0  0  0
 15 16  4  0  0  0  0
 11 16  4  0  0  0  0
 14 17  1  0  0  0  0
  9 11  1  0  0  0  0
M  END
> <From>
www.bindingDB.org

> <BindingDB Reactant_set_id>
408350

> <Ligand InChI>
InChI=1S/C13H10BrNO2/c14-9-5-7-10(8-6-9)15-13(17)11-3-1-2-4-12(11)16/h1-8,16H,(H,15,17)

> <Ligand InChI Key>
DKQMTUHJJPFJRL-UHFFFAOYSA-N

> <BindingDB MonomerID>
234306

> <BindingDB Ligand Name>
N-(4-bromophenyl)-2-hydroxybenzamide (7)

> <Target Name>
Epidermal growth factor receptor [645-1186]

> <Target Source Organism According to Curator or DataSource>


> <Ki (nM)>


> <IC50 (nM)>
 50000

> <Kd (nM)>


> <EC50 (nM)>


> <kon (M-1-s-1)>


> <koff (s-1)>


> <pH>
7.4

> <Temp C>
25.00

> <Curation/DataSource>
Curated from the literature by BindingDB

> <Article DOI>
10.3109/14756361003671060

> <BindingDB Entry DOI>
10.7270/Q2XW4HPN

> <PMID>
20583855

> <PubChem AID>
aid1802974

> <Patent Number>


> <Authors>
Zhu, ZW; Shi, L; Ruan, XM; Yang, Y; Li, HQ; Xu, SP; Zhu, HL

> <Institution>
Nanjing University

> <Link to Ligand in BindingDB>
http://www.bindingdb.org/bind/chemsearch/marvin/MolStructure.jsp?monomerid=234306

> <Link to Ligand-Target Pair in BindingDB>
http://www.bindingdb.org/jsp/dbsearch/PrimarySearch_ki.jsp?energyterm=kJ/mole&tag=pol&polymerid=10043&target=Epidermal+growth+factor+receptor+%5B645-1186%5D&column=ki&startPg=0&Increment=50&submit=Search

> <Link to Ligand-Target Pair in BindingDB>
http://www.bindingdb.org/jsp/dbsearch/PrimarySearch_ki.jsp?energyterm=kJ/mole&tag=r21&monomerid=234306&enzyme=Epidermal+growth+factor+receptor+%5B645-1186%5D&column=ki&startPg=0&Increment=50&submit=Search

> <Ligand HET ID in PDB>


> <PDB ID(s) for Ligand-Target Complex>


> <PubChem CID of Ligand>
75817

> <PubChem SID of Ligand>
340094295

> <ChEBI ID of Ligand>


> <ChEMBL ID of Ligand>


> <DrugBank ID of Ligand>


> <IUPHAR_GRAC ID of Ligand>


> <KEGG ID of Ligand>


> <ZINC ID of Ligand>


> <Number of Protein Chains in Target (bigger than 1 implies a multichain complex)>
1

> <BindingDB Target Chain Sequence>
SIATGMVGALLLLLVVALGIGLFMRRRHIVRKRTLRRLLQERELVEPLTPSGEAPNQALLRILKETEFKKIKVLGSGAFGTVYKGLWIPEGEKVKIPVAIKELREATSPKANKEILDEAYVMASVDNPHVCRLLGICLTSTVQLITQLMPFGCLLDYVREHKDNIGSQYLLNWCVQIAKGMNYLEDRRLVHRDLAARNVLVKTPQHVKITDFGLAKLLGAEEKEYHAEGGKVPIKWMALESILHRIYTHQSDVWSYGVTVWELMTFGSKPYDGIPASEISSILEKGERLPQPPICTIDVYMIMVKCWMIDADSRPKFRELIIEFSKMARDPQRYLVIQGDERMHLPSPTDSNFYRALMDEEDMDDVVDADEYLIPQQGFFSSPSTSRTPLLSSLSATSNNSTVACIDRNGLQSCPIKEDSFLQRYSSDPTGALTEDSIDDTFLPVPEYINQSVPKRPAGSVQNPVYHNQPLNPAPSRDPHYQDPHSTAVGNPEYLNTVQPTCVNSTFDSPAHWAQKGSHQISLDNPDYQQDFFPKEAKPNGI

> <PDB ID(s) of Target Chain>
1M14,1M17,1XKK,1Z9I,2GS2,2GS6,2ITW,2ITX,2ITY,2J5E,2J5F,2J6M,2RF9,2RGP,3BEL,3GOP,3POZ,3VJO,3W2O,3W2P,3W2Q,3W2R,3W2S,3W32,3W33,4G5J,4I23,4JQ7,4JQ8,4JR3,4JRV,4LI5,4RJ4,4RJ5,4RJ6,4RJ7,4RJ8,4TKS,4WKQ,4WRG,4ZAU,5C8K,5C8M,5C8N,5CAL,5CAN,5CAO,5CAP,5CAQ,5CAS,5CAU,5CAV,5EDP,5EDQ,5EDR,5EM5,5EM6,5EM7,5EM8,5GNK,5HCX,5HCY,5HCZ,5HIB,5HIC,5UGB,5Y25,6D8E,6JZ0,6S89,6S8A,6VH4,6VHN,6VHP,7AEI,7AEM,7B85,7OXB,7SI1,7UKV,7ZYM,7ZYN,7ZYP,8A27,8A2A,8HY7

> <UniProt (SwissProt) Recommended Name of Target Chain>
Epidermal growth factor receptor

> <UniProt (SwissProt) Entry Name of Target Chain>
EGFR_HUMAN

> <UniProt (SwissProt) Primary ID of Target Chain>
P00533

> <UniProt (SwissProt) Secondary ID(s) of Target Chain>
O00688 O00732 P06268 Q14225 Q68GS5 Q92795 Q9BZS2 Q9GZX1 Q9H2C9 Q9H3C9 Q9UMD7 Q9UMD8 Q9UMG5

> <UniProt (SwissProt) Alternative ID(s) of Target Chain>


> <UniProt (TrEMBL) Submitted Name of Target Chain>


> <UniProt (TrEMBL) Entry Name of Target Chain>


> <UniProt (TrEMBL) Primary ID of Target Chain>


> <UniProt (TrEMBL) Secondary ID(s) of Target Chain>


> <UniProt (TrEMBL) Alternative ID(s) of Target Chain>


$$$$
Untitled Document-1
  Mrv0541 06191716202D          

 18 19  0  0  0  0            999 V2000
    8.1747   -5.5572    0.0000 C   0  0  0  0  0  0  0  0  0  0  0  0
    8.8891   -5.1447    0.0000 C   0  0  0  0  0  0  0  0  0  0  0  0
    8.8891   -4.3197    0.0000 C   0  0  0  0  0  0  0  0  0  0  0  0
    9.6036   -3.9072    0.0000 C   0  0  0  0  0  0  0  0  0  0  0  0
   10.3180   -4.3197    0.0000 C   0  0  0  0  0  0  0  0  0  0  0  0
   10.3180   -5.1447    0.0000 C   0  0  0  0  0  0  0  0  0  0  0  0
    9.6036   -5.5572    0.0000 C   0  0  0  0  0  0  0  0  0  0  0  0
    8.1747   -6.3822    0.0000 O   0  0  0  0  0  0  0  0  0  0  0  0
    7.4599   -5.1447    0.0000 N   0  0  0  0  0  0  0  0  0  0  0  0
    8.1747   -3.9072    0.0000 O   0  0  0  0  0  0  0  0  0  0  0  0
    6.7455   -5.5572    0.0000 C   0  0  0  0  0  0  0  0  0  0  0  0
    6.7455   -6.3822    0.0000 C   0  0  0  0  0  0  0  0  0  0  0  0
    6.0310   -6.7947    0.0000 C   0  0  0  0  0  0  0  0  0  0  0  0
    5.3166   -6.3822    0.0000 C   0  0  0  0  0  0  0  0  0  0  0  0
    5.3166   -5.5572    0.0000 C   0  0  0  0  0  0  0  0  0  0  0  0
    6.0310   -5.1447    0.0000 C   0  0  0  0  0  0  0  0  0  0  0  0
    4.6021   -6.7947    0.0000 F   0  0  0  0  0  0  0  0  0  0  0  0
    7.4599   -6.7947    0.0000 F   0  0  0  0  0  0  0  0  0  0  0  0
  1  2  1  0  0  0  0
  2  3  4  0  0  0  0
  3  4  4  0  0  0  0
  4  5  4  0  0  0  0
  5  6  4  0  0  0  0
  6  7  4  0  0  0  0
  2  7  4  0  0  0  0
  1  8  2  0  0  0  0
  1  9  1  0  0  0  0
  3 10  1  0  0  0  0
 11 12  4  0  0  0  0
 12 13  4  0  0  0  0
 13 14  4  0  0  0  0
 14 15  4  0  0  0  0
 15 16  4  0  0  0  0
 11 16  4  0  0  0  0
 14 17  1  0  0  0  0
 12 18  1  0  0  0  0
  9 11  1  0  0  0  0
M  END
> <From>
www.bindingDB.org

> <BindingDB Reactant_set_id>
408351

> <Ligand InChI>
InChI=1S/C13H9F2NO2/c14-8-5-6-11(10(15)7-8)16-13(18)9-3-1-2-4-12(9)17/h1-7,17H,(H,16,18)

> <Ligand InChI Key>
ODTXYAGVNHCSKH-UHFFFAOYSA-N

> <BindingDB MonomerID>
234307

> <BindingDB Ligand Name>
N-(2,4-difluorophenyl)-2-hydroxybenzamide (8)

> <Target Name>
Epidermal growth factor receptor [645-1186]

> <Target Source Organism According to Curator or DataSource>


> <Ki (nM)>


> <IC50 (nM)>
 50000

> <Kd (nM)>


> <EC50 (nM)>


> <kon (M-1-s-1)>


> <koff (s-1)>


> <pH>
7.4

> <Temp C>
25.00

> <Curation/DataSource>
Curated from the literature by BindingDB

> <Article DOI>
10.3109/14756361003671060

> <BindingDB Entry DOI>
10.7270/Q2XW4HPN

> <PMID>
20583855

> <PubChem AID>
aid1802974

> <Patent Number>


> <Authors>
Zhu, ZW; Shi, L; Ruan, XM; Yang, Y; Li, HQ; Xu, SP; Zhu, HL

> <Institution>
Nanjing University

> <Link to Ligand in BindingDB>
http://www.bindingdb.org/bind/chemsearch/marvin/MolStructure.jsp?monomerid=234307

> <Link to Ligand-Target Pair in BindingDB>
http://www.bindingdb.org/jsp/dbsearch/PrimarySearch_ki.jsp?energyterm=kJ/mole&tag=pol&polymerid=10043&target=Epidermal+growth+factor+receptor+%5B645-1186%5D&column=ki&startPg=0&Increment=50&submit=Search

> <Link to Ligand-Target Pair in BindingDB>
http://www.bindingdb.org/jsp/dbsearch/PrimarySearch_ki.jsp?energyterm=kJ/mole&tag=r21&monomerid=234307&enzyme=Epidermal+growth+factor+receptor+%5B645-1186%5D&column=ki&startPg=0&Increment=50&submit=Search

> <Ligand HET ID in PDB>


> <PDB ID(s) for Ligand-Target Complex>


> <PubChem CID of Ligand>
28393775

> <PubChem SID of Ligand>
340094296

> <ChEBI ID of Ligand>


> <ChEMBL ID of Ligand>


> <DrugBank ID of Ligand>


> <IUPHAR_GRAC ID of Ligand>


> <KEGG ID of Ligand>


> <ZINC ID of Ligand>


> <Number of Protein Chains in Target (bigger than 1 implies a multichain complex)>
1

> <BindingDB Target Chain Sequence>
SIATGMVGALLLLLVVALGIGLFMRRRHIVRKRTLRRLLQERELVEPLTPSGEAPNQALLRILKETEFKKIKVLGSGAFGTVYKGLWIPEGEKVKIPVAIKELREATSPKANKEILDEAYVMASVDNPHVCRLLGICLTSTVQLITQLMPFGCLLDYVREHKDNIGSQYLLNWCVQIAKGMNYLEDRRLVHRDLAARNVLVKTPQHVKITDFGLAKLLGAEEKEYHAEGGKVPIKWMALESILHRIYTHQSDVWSYGVTVWELMTFGSKPYDGIPASEISSILEKGERLPQPPICTIDVYMIMVKCWMIDADSRPKFRELIIEFSKMARDPQRYLVIQGDERMHLPSPTDSNFYRALMDEEDMDDVVDADEYLIPQQGFFSSPSTSRTPLLSSLSATSNNSTVACIDRNGLQSCPIKEDSFLQRYSSDPTGALTEDSIDDTFLPVPEYINQSVPKRPAGSVQNPVYHNQPLNPAPSRDPHYQDPHSTAVGNPEYLNTVQPTCVNSTFDSPAHWAQKGSHQISLDNPDYQQDFFPKEAKPNGI

> <PDB ID(s) of Target Chain>
1M14,1M17,1XKK,1Z9I,2GS2,2GS6,2ITW,2ITX,2ITY,2J5E,2J5F,2J6M,2RF9,2RGP,3BEL,3GOP,3POZ,3VJO,3W2O,3W2P,3W2Q,3W2R,3W2S,3W32,3W33,4G5J,4I23,4JQ7,4JQ8,4JR3,4JRV,4LI5,4RJ4,4RJ5,4RJ6,4RJ7,4RJ8,4TKS,4WKQ,4WRG,4ZAU,5C8K,5C8M,5C8N,5CAL,5CAN,5CAO,5CAP,5CAQ,5CAS,5CAU,5CAV,5EDP,5EDQ,5EDR,5EM5,5EM6,5EM7,5EM8,5GNK,5HCX,5HCY,5HCZ,5HIB,5HIC,5UGB,5Y25,6D8E,6JZ0,6S89,6S8A,6VH4,6VHN,6VHP,7AEI,7AEM,7B85,7OXB,7SI1,7UKV,7ZYM,7ZYN,7ZYP,8A27,8A2A,8HY7

> <UniProt (SwissProt) Recommended Name of Target Chain>
Epidermal growth factor receptor

> <UniProt (SwissProt) Entry Name of Target Chain>
EGFR_HUMAN

> <UniProt (SwissProt) Primary ID of Target Chain>
P00533

> <UniProt (SwissProt) Secondary ID(s) of Target Chain>
O00688 O00732 P06268 Q14225 Q68GS5 Q92795 Q9BZS2 Q9GZX1 Q9H2C9 Q9H3C9 Q9UMD7 Q9UMD8 Q9UMG5

> <UniProt (SwissProt) Alternative ID(s) of Target Chain>


> <UniProt (TrEMBL) Submitted Name of Target Chain>


> <UniProt (TrEMBL) Entry Name of Target Chain>


> <UniProt (TrEMBL) Primary ID of Target Chain>


> <UniProt (TrEMBL) Secondary ID(s) of Target Chain>


> <UniProt (TrEMBL) Alternative ID(s) of Target Chain>


$$$$
Untitled Document-1
  Mrv0541 06191716202D          

 18 19  0  0  0  0            999 V2000
    7.0450   -5.1417    0.0000 C   0  0  0  0  0  0  0  0  0  0  0  0
    6.3305   -5.5542    0.0000 C   0  0  0  0  0  0  0  0  0  0  0  0
    6.3305   -6.3792    0.0000 C   0  0  0  0  0  0  0  0  0  0  0  0
    5.6161   -6.7917    0.0000 C   0  0  0  0  0  0  0  0  0  0  0  0
    4.9016   -6.3792    0.0000 C   0  0  0  0  0  0  0  0  0  0  0  0
    4.9016   -5.5542    0.0000 C   0  0  0  0  0  0  0  0  0  0  0  0
    5.6161   -5.1417    0.0000 C   0  0  0  0  0  0  0  0  0  0  0  0
    7.0450   -4.3167    0.0000 O   0  0  0  0  0  0  0  0  0  0  0  0
    7.7594   -5.5542    0.0000 N   0  0  0  0  0  0  0  0  0  0  0  0
    4.1872   -5.1417    0.0000 I   0  0  0  0  0  0  0  0  0  0  0  0
    7.0450   -6.7917    0.0000 O   0  0  0  0  0  0  0  0  0  0  0  0
    8.4739   -5.1417    0.0000 C   0  0  0  0  0  0  0  0  0  0  0  0
    8.4739   -4.3167    0.0000 C   0  0  0  0  0  0  0  0  0  0  0  0
    9.1883   -3.9042    0.0000 C   0  0  0  0  0  0  0  0  0  0  0  0
    9.9028   -4.3167    0.0000 C   0  0  0  0  0  0  0  0  0  0  0  0
    9.9028   -5.1417    0.0000 C   0  0  0  0  0  0  0  0  0  0  0  0
    9.1883   -5.5542    0.0000 C   0  0  0  0  0  0  0  0  0  0  0  0
   10.6172   -3.9042    0.0000 F   0  0  0  0  0  0  0  0  0  0  0  0
  1  2  1  0  0  0  0
  2  3  4  0  0  0  0
  3  4  4  0  0  0  0
  4  5  4  0  0  0  0
  5  6  4  0  0  0  0
  6  7  4  0  0  0  0
  2  7  4  0  0  0  0
  1  8  2  0  0  0  0
  1  9  1  0  0  0  0
  6 10  1  0  0  0  0
  3 11  1  0  0  0  0
 12 13  4  0  0  0  0
 13 14  4  0  0  0  0
 14 15  4  0  0  0  0
 15 16  4  0  0  0  0
 16 17  4  0  0  0  0
 12 17  4  0  0  0  0
 15 18  1  0  0  0  0
  9 12  1  0  0  0  0
M  END
> <From>
www.bindingDB.org

> <BindingDB Reactant_set_id>
408366

> <Ligand InChI>
InChI=1S/C13H9FINO2/c14-8-1-4-10(5-2-8)16-13(18)11-7-9(15)3-6-12(11)17/h1-7,17H,(H,16,18)

> <Ligand InChI Key>
KNBXEFXDDUIVBJ-UHFFFAOYSA-N

> <BindingDB MonomerID>
234321

> <BindingDB Ligand Name>
N-(4-fluorophenyl)-2-hydroxy-5-iodobenzamide (23)

> <Target Name>
Epidermal growth factor receptor [645-1186]

> <Target Source Organism According to Curator or DataSource>


> <Ki (nM)>


> <IC50 (nM)>
 50000

> <Kd (nM)>


> <EC50 (nM)>


> <kon (M-1-s-1)>


> <koff (s-1)>


> <pH>
7.4

> <Temp C>
25.00

> <Curation/DataSource>
Curated from the literature by BindingDB

> <Article DOI>
10.3109/14756361003671060

> <BindingDB Entry DOI>
10.7270/Q2XW4HPN

> <PMID>
20583855

> <PubChem AID>
aid1802974

> <Patent Number>


> <Authors>
Zhu, ZW; Shi, L; Ruan, XM; Yang, Y; Li, HQ; Xu, SP; Zhu, HL

> <Institution>
Nanjing University

> <Link to Ligand in BindingDB>
http://www.bindingdb.org/bind/chemsearch/marvin/MolStructure.jsp?monomerid=234321

> <Link to Ligand-Target Pair in BindingDB>
http://www.bindingdb.org/jsp/dbsearch/PrimarySearch_ki.jsp?energyterm=kJ/mole&tag=pol&polymerid=10043&target=Epidermal+growth+factor+receptor+%5B645-1186%5D&column=ki&startPg=0&Increment=50&submit=Search

> <Link to Ligand-Target Pair in BindingDB>
http://www.bindingdb.org/jsp/dbsearch/PrimarySearch_ki.jsp?energyterm=kJ/mole&tag=r21&monomerid=234321&enzyme=Epidermal+growth+factor+receptor+%5B645-1186%5D&column=ki&startPg=0&Increment=50&submit=Search

> <Ligand HET ID in PDB>


> <PDB ID(s) for Ligand-Target Complex>


> <PubChem CID of Ligand>
42052185

> <PubChem SID of Ligand>
340094310

> <ChEBI ID of Ligand>


> <ChEMBL ID of Ligand>


> <DrugBank ID of Ligand>


> <IUPHAR_GRAC ID of Ligand>


> <KEGG ID of Ligand>


> <ZINC ID of Ligand>


> <Number of Protein Chains in Target (bigger than 1 implies a multichain complex)>
1

> <BindingDB Target Chain Sequence>
SIATGMVGALLLLLVVALGIGLFMRRRHIVRKRTLRRLLQERELVEPLTPSGEAPNQALLRILKETEFKKIKVLGSGAFGTVYKGLWIPEGEKVKIPVAIKELREATSPKANKEILDEAYVMASVDNPHVCRLLGICLTSTVQLITQLMPFGCLLDYVREHKDNIGSQYLLNWCVQIAKGMNYLEDRRLVHRDLAARNVLVKTPQHVKITDFGLAKLLGAEEKEYHAEGGKVPIKWMALESILHRIYTHQSDVWSYGVTVWELMTFGSKPYDGIPASEISSILEKGERLPQPPICTIDVYMIMVKCWMIDADSRPKFRELIIEFSKMARDPQRYLVIQGDERMHLPSPTDSNFYRALMDEEDMDDVVDADEYLIPQQGFFSSPSTSRTPLLSSLSATSNNSTVACIDRNGLQSCPIKEDSFLQRYSSDPTGALTEDSIDDTFLPVPEYINQSVPKRPAGSVQNPVYHNQPLNPAPSRDPHYQDPHSTAVGNPEYLNTVQPTCVNSTFDSPAHWAQKGSHQISLDNPDYQQDFFPKEAKPNGI

> <PDB ID(s) of Target Chain>
1M14,1M17,1XKK,1Z9I,2GS2,2GS6,2ITW,2ITX,2ITY,2J5E,2J5F,2J6M,2RF9,2RGP,3BEL,3GOP,3POZ,3VJO,3W2O,3W2P,3W2Q,3W2R,3W2S,3W32,3W33,4G5J,4I23,4JQ7,4JQ8,4JR3,4JRV,4LI5,4RJ4,4RJ5,4RJ6,4RJ7,4RJ8,4TKS,4WKQ,4WRG,4ZAU,5C8K,5C8M,5C8N,5CAL,5CAN,5CAO,5CAP,5CAQ,5CAS,5CAU,5CAV,5EDP,5EDQ,5EDR,5EM5,5EM6,5EM7,5EM8,5GNK,5HCX,5HCY,5HCZ,5HIB,5HIC,5UGB,5Y25,6D8E,6JZ0,6S89,6S8A,6VH4,6VHN,6VHP,7AEI,7AEM,7B85,7OXB,7SI1,7UKV,7ZYM,7ZYN,7ZYP,8A27,8A2A,8HY7

> <UniProt (SwissProt) Recommended Name of Target Chain>
Epidermal growth factor receptor

> <UniProt (SwissProt) Entry Name of Target Chain>
EGFR_HUMAN

> <UniProt (SwissProt) Primary ID of Target Chain>
P00533

> <UniProt (SwissProt) Secondary ID(s) of Target Chain>
O00688 O00732 P06268 Q14225 Q68GS5 Q92795 Q9BZS2 Q9GZX1 Q9H2C9 Q9H3C9 Q9UMD7 Q9UMD8 Q9UMG5

> <UniProt (SwissProt) Alternative ID(s) of Target Chain>


> <UniProt (TrEMBL) Submitted Name of Target Chain>


> <UniProt (TrEMBL) Entry Name of Target Chain>


> <UniProt (TrEMBL) Primary ID of Target Chain>


> <UniProt (TrEMBL) Secondary ID(s) of Target Chain>


> <UniProt (TrEMBL) Alternative ID(s) of Target Chain>


$$$$
Untitled Document-1
  Mrv0541 06191716202D          

 20 21  0  0  0  0            999 V2000
    6.7106   -5.4931    0.0000 C   0  0  0  0  0  0  0  0  0  0  0  0
    5.9961   -5.9056    0.0000 C   0  0  0  0  0  0  0  0  0  0  0  0
    5.9961   -6.7306    0.0000 C   0  0  0  0  0  0  0  0  0  0  0  0
    5.2817   -7.1431    0.0000 C   0  0  0  0  0  0  0  0  0  0  0  0
    4.5672   -6.7306    0.0000 C   0  0  0  0  0  0  0  0  0  0  0  0
    4.5672   -5.9056    0.0000 C   0  0  0  0  0  0  0  0  0  0  0  0
    5.2817   -5.4931    0.0000 C   0  0  0  0  0  0  0  0  0  0  0  0
    6.7106   -4.6681    0.0000 O   0  0  0  0  0  0  0  0  0  0  0  0
    7.4250   -5.9056    0.0000 N   0  0  0  0  0  0  0  0  0  0  0  0
    3.8528   -7.1431    0.0000 C   0  0  0  0  0  0  0  0  0  0  0  0
    8.1395   -5.4931    0.0000 C   0  0  0  0  0  0  0  0  0  0  0  0
    8.1395   -4.6681    0.0000 C   0  0  0  0  0  0  0  0  0  0  0  0
    8.8539   -4.2556    0.0000 C   0  0  0  0  0  0  0  0  0  0  0  0
    9.5684   -4.6681    0.0000 C   0  0  0  0  0  0  0  0  0  0  0  0
    9.5684   -5.4931    0.0000 C   0  0  0  0  0  0  0  0  0  0  0  0
    8.8539   -5.9056    0.0000 C   0  0  0  0  0  0  0  0  0  0  0  0
   10.2828   -4.2556    0.0000 C   0  0  0  0  0  0  0  0  0  0  0  0
   10.2828   -3.4306    0.0000 C   0  0  0  0  0  0  0  0  0  0  0  0
   10.9973   -4.6681    0.0000 C   0  0  0  0  0  0  0  0  0  0  0  0
    6.7106   -7.1431    0.0000 O   0  0  0  0  0  0  0  0  0  0  0  0
  1  2  1  0  0  0  0
  2  3  4  0  0  0  0
  3  4  4  0  0  0  0
  4  5  4  0  0  0  0
  5  6  4  0  0  0  0
  6  7  4  0  0  0  0
  2  7  4  0  0  0  0
  1  8  2  0  0  0  0
  1  9  1  0  0  0  0
  5 10  1  0  0  0  0
 11 12  4  0  0  0  0
 12 13  4  0  0  0  0
 13 14  4  0  0  0  0
 14 15  4  0  0  0  0
 15 16  4  0  0  0  0
 11 16  4  0  0  0  0
 17 18  1  0  0  0  0
 17 19  1  0  0  0  0
 14 17  1  0  0  0  0
  9 11  1  0  0  0  0
  3 20  1  0  0  0  0
M  END
> <From>
www.bindingDB.org

> <BindingDB Reactant_set_id>
408363

> <Ligand InChI>
InChI=1S/C17H19NO2/c1-11(2)13-5-7-14(8-6-13)18-17(20)15-9-4-12(3)10-16(15)19/h4-11,19H,1-3H3,(H,18,20)

> <Ligand InChI Key>
ZXKHSBAKJHMPQB-UHFFFAOYSA-N

> <BindingDB MonomerID>
234318

> <BindingDB Ligand Name>
2-Hydroxy-N-(4-isopropylphenyl)-4-methylbenzamide (20)

> <Target Name>
Epidermal growth factor receptor [645-1186]

> <Target Source Organism According to Curator or DataSource>


> <Ki (nM)>


> <IC50 (nM)>
 50000

> <Kd (nM)>


> <EC50 (nM)>


> <kon (M-1-s-1)>


> <koff (s-1)>


> <pH>
7.4

> <Temp C>
25.00

> <Curation/DataSource>
Curated from the literature by BindingDB

> <Article DOI>
10.3109/14756361003671060

> <BindingDB Entry DOI>
10.7270/Q2XW4HPN

> <PMID>
20583855

> <PubChem AID>
aid1802974

> <Patent Number>


> <Authors>
Zhu, ZW; Shi, L; Ruan, XM; Yang, Y; Li, HQ; Xu, SP; Zhu, HL

> <Institution>
Nanjing University

> <Link to Ligand in BindingDB>
http://www.bindingdb.org/bind/chemsearch/marvin/MolStructure.jsp?monomerid=234318

> <Link to Ligand-Target Pair in BindingDB>
http://www.bindingdb.org/jsp/dbsearch/PrimarySearch_ki.jsp?energyterm=kJ/mole&tag=pol&polymerid=10043&target=Epidermal+growth+factor+receptor+%5B645-1186%5D&column=ki&startPg=0&Increment=50&submit=Search

> <Link to Ligand-Target Pair in BindingDB>
http://www.bindingdb.org/jsp/dbsearch/PrimarySearch_ki.jsp?energyterm=kJ/mole&tag=r21&monomerid=234318&enzyme=Epidermal+growth+factor+receptor+%5B645-1186%5D&column=ki&startPg=0&Increment=50&submit=Search

> <Ligand HET ID in PDB>


> <PDB ID(s) for Ligand-Target Complex>


> <PubChem CID of Ligand>
29798976

> <PubChem SID of Ligand>
340094307

> <ChEBI ID of Ligand>


> <ChEMBL ID of Ligand>


> <DrugBank ID of Ligand>


> <IUPHAR_GRAC ID of Ligand>


> <KEGG ID of Ligand>


> <ZINC ID of Ligand>


> <Number of Protein Chains in Target (bigger than 1 implies a multichain complex)>
1

> <BindingDB Target Chain Sequence>
SIATGMVGALLLLLVVALGIGLFMRRRHIVRKRTLRRLLQERELVEPLTPSGEAPNQALLRILKETEFKKIKVLGSGAFGTVYKGLWIPEGEKVKIPVAIKELREATSPKANKEILDEAYVMASVDNPHVCRLLGICLTSTVQLITQLMPFGCLLDYVREHKDNIGSQYLLNWCVQIAKGMNYLEDRRLVHRDLAARNVLVKTPQHVKITDFGLAKLLGAEEKEYHAEGGKVPIKWMALESILHRIYTHQSDVWSYGVTVWELMTFGSKPYDGIPASEISSILEKGERLPQPPICTIDVYMIMVKCWMIDADSRPKFRELIIEFSKMARDPQRYLVIQGDERMHLPSPTDSNFYRALMDEEDMDDVVDADEYLIPQQGFFSSPSTSRTPLLSSLSATSNNSTVACIDRNGLQSCPIKEDSFLQRYSSDPTGALTEDSIDDTFLPVPEYINQSVPKRPAGSVQNPVYHNQPLNPAPSRDPHYQDPHSTAVGNPEYLNTVQPTCVNSTFDSPAHWAQKGSHQISLDNPDYQQDFFPKEAKPNGI

> <PDB ID(s) of Target Chain>
1M14,1M17,1XKK,1Z9I,2GS2,2GS6,2ITW,2ITX,2ITY,2J5E,2J5F,2J6M,2RF9,2RGP,3BEL,3GOP,3POZ,3VJO,3W2O,3W2P,3W2Q,3W2R,3W2S,3W32,3W33,4G5J,4I23,4JQ7,4JQ8,4JR3,4JRV,4LI5,4RJ4,4RJ5,4RJ6,4RJ7,4RJ8,4TKS,4WKQ,4WRG,4ZAU,5C8K,5C8M,5C8N,5CAL,5CAN,5CAO,5CAP,5CAQ,5CAS,5CAU,5CAV,5EDP,5EDQ,5EDR,5EM5,5EM6,5EM7,5EM8,5GNK,5HCX,5HCY,5HCZ,5HIB,5HIC,5UGB,5Y25,6D8E,6JZ0,6S89,6S8A,6VH4,6VHN,6VHP,7AEI,7AEM,7B85,7OXB,7SI1,7UKV,7ZYM,7ZYN,7ZYP,8A27,8A2A,8HY7

> <UniProt (SwissProt) Recommended Name of Target Chain>
Epidermal growth factor receptor

> <UniProt (SwissProt) Entry Name of Target Chain>
EGFR_HUMAN

> <UniProt (SwissProt) Primary ID of Target Chain>
P00533

> <UniProt (SwissProt) Secondary ID(s) of Target Chain>
O00688 O00732 P06268 Q14225 Q68GS5 Q92795 Q9BZS2 Q9GZX1 Q9H2C9 Q9H3C9 Q9UMD7 Q9UMD8 Q9UMG5

> <UniProt (SwissProt) Alternative ID(s) of Target Chain>


> <UniProt (TrEMBL) Submitted Name of Target Chain>


> <UniProt (TrEMBL) Entry Name of Target Chain>


> <UniProt (TrEMBL) Primary ID of Target Chain>


> <UniProt (TrEMBL) Secondary ID(s) of Target Chain>


> <UniProt (TrEMBL) Alternative ID(s) of Target Chain>


$$$$
Untitled Document-1
  Mrv0541 06191716202D          

 19 20  0  0  0  0            999 V2000
    7.0293   -5.1417    0.0000 C   0  0  0  0  0  0  0  0  0  0  0  0
    6.3146   -5.5542    0.0000 C   0  0  0  0  0  0  0  0  0  0  0  0
    6.3146   -6.3792    0.0000 C   0  0  0  0  0  0  0  0  0  0  0  0
    5.6001   -6.7917    0.0000 C   0  0  0  0  0  0  0  0  0  0  0  0
    4.8857   -6.3792    0.0000 C   0  0  0  0  0  0  0  0  0  0  0  0
    4.8857   -5.5542    0.0000 C   0  0  0  0  0  0  0  0  0  0  0  0
    5.6001   -5.1417    0.0000 C   0  0  0  0  0  0  0  0  0  0  0  0
    7.0293   -4.3167    0.0000 O   0  0  0  0  0  0  0  0  0  0  0  0
    7.7437   -5.5542    0.0000 N   0  0  0  0  0  0  0  0  0  0  0  0
    4.1712   -6.7917    0.0000 C   0  0  0  0  0  0  0  0  0  0  0  0
    7.0293   -6.7917    0.0000 O   0  0  0  0  0  0  0  0  0  0  0  0
    8.4582   -5.1417    0.0000 C   0  0  0  0  0  0  0  0  0  0  0  0
    8.4582   -4.3167    0.0000 C   0  0  0  0  0  0  0  0  0  0  0  0
    9.1726   -3.9042    0.0000 C   0  0  0  0  0  0  0  0  0  0  0  0
    9.8871   -4.3167    0.0000 C   0  0  0  0  0  0  0  0  0  0  0  0
    9.8871   -5.1417    0.0000 C   0  0  0  0  0  0  0  0  0  0  0  0
    9.1726   -5.5542    0.0000 C   0  0  0  0  0  0  0  0  0  0  0  0
   10.6015   -3.9042    0.0000 F   0  0  0  0  0  0  0  0  0  0  0  0
    7.7437   -3.9042    0.0000 F   0  0  0  0  0  0  0  0  0  0  0  0
  1  2  1  0  0  0  0
  2  3  4  0  0  0  0
  3  4  4  0  0  0  0
  4  5  4  0  0  0  0
  5  6  4  0  0  0  0
  6  7  4  0  0  0  0
  2  7  4  0  0  0  0
  1  8  2  0  0  0  0
  1  9  1  0  0  0  0
  5 10  1  0  0  0  0
  3 11  1  0  0  0  0
 12 13  4  0  0  0  0
 13 14  4  0  0  0  0
 14 15  4  0  0  0  0
 15 16  4  0  0  0  0
 16 17  4  0  0  0  0
 12 17  4  0  0  0  0
 15 18  1  0  0  0  0
 13 19  1  0  0  0  0
  9 12  1  0  0  0  0
M  END
> <From>
www.bindingDB.org

> <BindingDB Reactant_set_id>
408360

> <Ligand InChI>
InChI=1S/C14H11F2NO2/c1-8-2-4-10(13(18)6-8)14(19)17-12-5-3-9(15)7-11(12)16/h2-7,18H,1H3,(H,17,19)

> <Ligand InChI Key>
IUWNPBOWBUZUBZ-UHFFFAOYSA-N

> <BindingDB MonomerID>
234315

> <BindingDB Ligand Name>
N-(2,4-difluorophenyl)-2-hydroxy-4-methylbenzamide (17)

> <Target Name>
Epidermal growth factor receptor [645-1186]

> <Target Source Organism According to Curator or DataSource>


> <Ki (nM)>


> <IC50 (nM)>
 50000

> <Kd (nM)>


> <EC50 (nM)>


> <kon (M-1-s-1)>


> <koff (s-1)>


> <pH>
7.4

> <Temp C>
25.00

> <Curation/DataSource>
Curated from the literature by BindingDB

> <Article DOI>
10.3109/14756361003671060

> <BindingDB Entry DOI>
10.7270/Q2XW4HPN

> <PMID>
20583855

> <PubChem AID>
aid1802974

> <Patent Number>


> <Authors>
Zhu, ZW; Shi, L; Ruan, XM; Yang, Y; Li, HQ; Xu, SP; Zhu, HL

> <Institution>
Nanjing University

> <Link to Ligand in BindingDB>
http://www.bindingdb.org/bind/chemsearch/marvin/MolStructure.jsp?monomerid=234315

> <Link to Ligand-Target Pair in BindingDB>
http://www.bindingdb.org/jsp/dbsearch/PrimarySearch_ki.jsp?energyterm=kJ/mole&tag=pol&polymerid=10043&target=Epidermal+growth+factor+receptor+%5B645-1186%5D&column=ki&startPg=0&Increment=50&submit=Search

> <Link to Ligand-Target Pair in BindingDB>
http://www.bindingdb.org/jsp/dbsearch/PrimarySearch_ki.jsp?energyterm=kJ/mole&tag=r21&monomerid=234315&enzyme=Epidermal+growth+factor+receptor+%5B645-1186%5D&column=ki&startPg=0&Increment=50&submit=Search

> <Ligand HET ID in PDB>


> <PDB ID(s) for Ligand-Target Complex>


> <PubChem CID of Ligand>
28393800

> <PubChem SID of Ligand>
340094304

> <ChEBI ID of Ligand>


> <ChEMBL ID of Ligand>


> <DrugBank ID of Ligand>


> <IUPHAR_GRAC ID of Ligand>


> <KEGG ID of Ligand>


> <ZINC ID of Ligand>


> <Number of Protein Chains in Target (bigger than 1 implies a multichain complex)>
1

> <BindingDB Target Chain Sequence>
SIATGMVGALLLLLVVALGIGLFMRRRHIVRKRTLRRLLQERELVEPLTPSGEAPNQALLRILKETEFKKIKVLGSGAFGTVYKGLWIPEGEKVKIPVAIKELREATSPKANKEILDEAYVMASVDNPHVCRLLGICLTSTVQLITQLMPFGCLLDYVREHKDNIGSQYLLNWCVQIAKGMNYLEDRRLVHRDLAARNVLVKTPQHVKITDFGLAKLLGAEEKEYHAEGGKVPIKWMALESILHRIYTHQSDVWSYGVTVWELMTFGSKPYDGIPASEISSILEKGERLPQPPICTIDVYMIMVKCWMIDADSRPKFRELIIEFSKMARDPQRYLVIQGDERMHLPSPTDSNFYRALMDEEDMDDVVDADEYLIPQQGFFSSPSTSRTPLLSSLSATSNNSTVACIDRNGLQSCPIKEDSFLQRYSSDPTGALTEDSIDDTFLPVPEYINQSVPKRPAGSVQNPVYHNQPLNPAPSRDPHYQDPHSTAVGNPEYLNTVQPTCVNSTFDSPAHWAQKGSHQISLDNPDYQQDFFPKEAKPNGI

> <PDB ID(s) of Target Chain>
1M14,1M17,1XKK,1Z9I,2GS2,2GS6,2ITW,2ITX,2ITY,2J5E,2J5F,2J6M,2RF9,2RGP,3BEL,3GOP,3POZ,3VJO,3W2O,3W2P,3W2Q,3W2R,3W2S,3W32,3W33,4G5J,4I23,4JQ7,4JQ8,4JR3,4JRV,4LI5,4RJ4,4RJ5,4RJ6,4RJ7,4RJ8,4TKS,4WKQ,4WRG,4ZAU,5C8K,5C8M,5C8N,5CAL,5CAN,5CAO,5CAP,5CAQ,5CAS,5CAU,5CAV,5EDP,5EDQ,5EDR,5EM5,5EM6,5EM7,5EM8,5GNK,5HCX,5HCY,5HCZ,5HIB,5HIC,5UGB,5Y25,6D8E,6JZ0,6S89,6S8A,6VH4,6VHN,6VHP,7AEI,7AEM,7B85,7OXB,7SI1,7UKV,7ZYM,7ZYN,7ZYP,8A27,8A2A,8HY7

> <UniProt (SwissProt) Recommended Name of Target Chain>
Epidermal growth factor receptor

> <UniProt (SwissProt) Entry Name of Target Chain>
EGFR_HUMAN

> <UniProt (SwissProt) Primary ID of Target Chain>
P00533

> <UniProt (SwissProt) Secondary ID(s) of Target Chain>
O00688 O00732 P06268 Q14225 Q68GS5 Q92795 Q9BZS2 Q9GZX1 Q9H2C9 Q9H3C9 Q9UMD7 Q9UMD8 Q9UMG5

> <UniProt (SwissProt) Alternative ID(s) of Target Chain>


> <UniProt (TrEMBL) Submitted Name of Target Chain>


> <UniProt (TrEMBL) Entry Name of Target Chain>


> <UniProt (TrEMBL) Primary ID of Target Chain>


> <UniProt (TrEMBL) Secondary ID(s) of Target Chain>


> <UniProt (TrEMBL) Alternative ID(s) of Target Chain>


$$$$
Untitled Document-1
  Mrv0541 06191716202D          

 17 18  0  0  0  0            999 V2000
    7.4217   -5.0886    0.0000 C   0  0  0  0  0  0  0  0  0  0  0  0
    6.7070   -5.5011    0.0000 C   0  0  0  0  0  0  0  0  0  0  0  0
    6.7070   -6.3261    0.0000 C   0  0  0  0  0  0  0  0  0  0  0  0
    5.9925   -6.7386    0.0000 C   0  0  0  0  0  0  0  0  0  0  0  0
    5.2781   -6.3261    0.0000 C   0  0  0  0  0  0  0  0  0  0  0  0
    5.2781   -5.5011    0.0000 C   0  0  0  0  0  0  0  0  0  0  0  0
    5.9925   -5.0886    0.0000 C   0  0  0  0  0  0  0  0  0  0  0  0
    7.4217   -4.2636    0.0000 O   0  0  0  0  0  0  0  0  0  0  0  0
    8.1362   -5.5011    0.0000 N   0  0  0  0  0  0  0  0  0  0  0  0
    8.8506   -5.0886    0.0000 C   0  0  0  0  0  0  0  0  0  0  0  0
    8.8506   -4.2636    0.0000 C   0  0  0  0  0  0  0  0  0  0  0  0
    9.5651   -3.8511    0.0000 C   0  0  0  0  0  0  0  0  0  0  0  0
   10.2795   -4.2636    0.0000 C   0  0  0  0  0  0  0  0  0  0  0  0
   10.2795   -5.0886    0.0000 C   0  0  0  0  0  0  0  0  0  0  0  0
    9.5651   -5.5011    0.0000 C   0  0  0  0  0  0  0  0  0  0  0  0
    4.5636   -6.7386    0.0000 C   0  0  0  0  0  0  0  0  0  0  0  0
    7.4217   -6.7386    0.0000 O   0  0  0  0  0  0  0  0  0  0  0  0
  1  2  1  0  0  0  0
  2  3  4  0  0  0  0
  3  4  4  0  0  0  0
  4  5  4  0  0  0  0
  5  6  4  0  0  0  0
  6  7  4  0  0  0  0
  2  7  4  0  0  0  0
  1  8  2  0  0  0  0
  1  9  1  0  0  0  0
 10 11  4  0  0  0  0
 11 12  4  0  0  0  0
 12 13  4  0  0  0  0
 13 14  4  0  0  0  0
 14 15  4  0  0  0  0
 10 15  4  0  0  0  0
  9 10  1  0  0  0  0
  5 16  1  0  0  0  0
  3 17  1  0  0  0  0
M  END
> <From>
www.bindingDB.org

> <BindingDB Reactant_set_id>
408356

> <Ligand InChI>
InChI=1S/C14H13NO2/c1-10-7-8-12(13(16)9-10)14(17)15-11-5-3-2-4-6-11/h2-9,16H,1H3,(H,15,17)

> <Ligand InChI Key>
ILTDMZSEFBIATD-UHFFFAOYSA-N

> <BindingDB MonomerID>
234311

> <BindingDB Ligand Name>
2-Hydroxy-4-methyl-N-phenylbenzamide (13)

> <Target Name>
Epidermal growth factor receptor [645-1186]

> <Target Source Organism According to Curator or DataSource>


> <Ki (nM)>


> <IC50 (nM)>
 50000

> <Kd (nM)>


> <EC50 (nM)>


> <kon (M-1-s-1)>


> <koff (s-1)>


> <pH>
7.4

> <Temp C>
25.00

> <Curation/DataSource>
Curated from the literature by BindingDB

> <Article DOI>
10.3109/14756361003671060

> <BindingDB Entry DOI>
10.7270/Q2XW4HPN

> <PMID>
20583855

> <PubChem AID>
aid1802974

> <Patent Number>


> <Authors>
Zhu, ZW; Shi, L; Ruan, XM; Yang, Y; Li, HQ; Xu, SP; Zhu, HL

> <Institution>
Nanjing University

> <Link to Ligand in BindingDB>
http://www.bindingdb.org/bind/chemsearch/marvin/MolStructure.jsp?monomerid=234311

> <Link to Ligand-Target Pair in BindingDB>
http://www.bindingdb.org/jsp/dbsearch/PrimarySearch_ki.jsp?energyterm=kJ/mole&tag=pol&polymerid=10043&target=Epidermal+growth+factor+receptor+%5B645-1186%5D&column=ki&startPg=0&Increment=50&submit=Search

> <Link to Ligand-Target Pair in BindingDB>
http://www.bindingdb.org/jsp/dbsearch/PrimarySearch_ki.jsp?energyterm=kJ/mole&tag=r21&monomerid=234311&enzyme=Epidermal+growth+factor+receptor+%5B645-1186%5D&column=ki&startPg=0&Increment=50&submit=Search

> <Ligand HET ID in PDB>


> <PDB ID(s) for Ligand-Target Complex>


> <PubChem CID of Ligand>
5274032

> <PubChem SID of Ligand>
340094300

> <ChEBI ID of Ligand>


> <ChEMBL ID of Ligand>


> <DrugBank ID of Ligand>


> <IUPHAR_GRAC ID of Ligand>


> <KEGG ID of Ligand>


> <ZINC ID of Ligand>


> <Number of Protein Chains in Target (bigger than 1 implies a multichain complex)>
1

> <BindingDB Target Chain Sequence>
SIATGMVGALLLLLVVALGIGLFMRRRHIVRKRTLRRLLQERELVEPLTPSGEAPNQALLRILKETEFKKIKVLGSGAFGTVYKGLWIPEGEKVKIPVAIKELREATSPKANKEILDEAYVMASVDNPHVCRLLGICLTSTVQLITQLMPFGCLLDYVREHKDNIGSQYLLNWCVQIAKGMNYLEDRRLVHRDLAARNVLVKTPQHVKITDFGLAKLLGAEEKEYHAEGGKVPIKWMALESILHRIYTHQSDVWSYGVTVWELMTFGSKPYDGIPASEISSILEKGERLPQPPICTIDVYMIMVKCWMIDADSRPKFRELIIEFSKMARDPQRYLVIQGDERMHLPSPTDSNFYRALMDEEDMDDVVDADEYLIPQQGFFSSPSTSRTPLLSSLSATSNNSTVACIDRNGLQSCPIKEDSFLQRYSSDPTGALTEDSIDDTFLPVPEYINQSVPKRPAGSVQNPVYHNQPLNPAPSRDPHYQDPHSTAVGNPEYLNTVQPTCVNSTFDSPAHWAQKGSHQISLDNPDYQQDFFPKEAKPNGI

> <PDB ID(s) of Target Chain>
1M14,1M17,1XKK,1Z9I,2GS2,2GS6,2ITW,2ITX,2ITY,2J5E,2J5F,2J6M,2RF9,2RGP,3BEL,3GOP,3POZ,3VJO,3W2O,3W2P,3W2Q,3W2R,3W2S,3W32,3W33,4G5J,4I23,4JQ7,4JQ8,4JR3,4JRV,4LI5,4RJ4,4RJ5,4RJ6,4RJ7,4RJ8,4TKS,4WKQ,4WRG,4ZAU,5C8K,5C8M,5C8N,5CAL,5CAN,5CAO,5CAP,5CAQ,5CAS,5CAU,5CAV,5EDP,5EDQ,5EDR,5EM5,5EM6,5EM7,5EM8,5GNK,5HCX,5HCY,5HCZ,5HIB,5HIC,5UGB,5Y25,6D8E,6JZ0,6S89,6S8A,6VH4,6VHN,6VHP,7AEI,7AEM,7B85,7OXB,7SI1,7UKV,7ZYM,7ZYN,7ZYP,8A27,8A2A,8HY7

> <UniProt (SwissProt) Recommended Name of Target Chain>
Epidermal growth factor receptor

> <UniProt (SwissProt) Entry Name of Target Chain>
EGFR_HUMAN

> <UniProt (SwissProt) Primary ID of Target Chain>
P00533

> <UniProt (SwissProt) Secondary ID(s) of Target Chain>
O00688 O00732 P06268 Q14225 Q68GS5 Q92795 Q9BZS2 Q9GZX1 Q9H2C9 Q9H3C9 Q9UMD7 Q9UMD8 Q9UMG5

> <UniProt (SwissProt) Alternative ID(s) of Target Chain>


> <UniProt (TrEMBL) Submitted Name of Target Chain>


> <UniProt (TrEMBL) Entry Name of Target Chain>


> <UniProt (TrEMBL) Primary ID of Target Chain>


> <UniProt (TrEMBL) Secondary ID(s) of Target Chain>


> <UniProt (TrEMBL) Alternative ID(s) of Target Chain>


$$$$
Untitled Document-1
  Mrv0541 06191716202D          

 18 19  0  0  0  0            999 V2000
    6.9908   -5.1375    0.0000 C   0  0  0  0  0  0  0  0  0  0  0  0
    6.2763   -5.5500    0.0000 C   0  0  0  0  0  0  0  0  0  0  0  0
    6.2763   -6.3750    0.0000 C   0  0  0  0  0  0  0  0  0  0  0  0
    5.5619   -6.7875    0.0000 C   0  0  0  0  0  0  0  0  0  0  0  0
    4.8474   -6.3750    0.0000 C   0  0  0  0  0  0  0  0  0  0  0  0
    4.8474   -5.5500    0.0000 C   0  0  0  0  0  0  0  0  0  0  0  0
    5.5619   -5.1375    0.0000 C   0  0  0  0  0  0  0  0  0  0  0  0
    6.9908   -4.3125    0.0000 O   0  0  0  0  0  0  0  0  0  0  0  0
    7.7052   -5.5500    0.0000 N   0  0  0  0  0  0  0  0  0  0  0  0
    4.1330   -6.7875    0.0000 C   0  0  0  0  0  0  0  0  0  0  0  0
    6.9908   -6.7875    0.0000 O   0  0  0  0  0  0  0  0  0  0  0  0
    8.4197   -5.1375    0.0000 C   0  0  0  0  0  0  0  0  0  0  0  0
    8.4197   -4.3125    0.0000 C   0  0  0  0  0  0  0  0  0  0  0  0
    9.1344   -3.9000    0.0000 C   0  0  0  0  0  0  0  0  0  0  0  0
    9.8489   -4.3125    0.0000 C   0  0  0  0  0  0  0  0  0  0  0  0
    9.8489   -5.1375    0.0000 C   0  0  0  0  0  0  0  0  0  0  0  0
    9.1344   -5.5500    0.0000 C   0  0  0  0  0  0  0  0  0  0  0  0
   10.5633   -3.9000    0.0000 Cl  0  0  0  0  0  0  0  0  0  0  0  0
  1  2  1  0  0  0  0
  2  3  4  0  0  0  0
  3  4  4  0  0  0  0
  4  5  4  0  0  0  0
  5  6  4  0  0  0  0
  6  7  4  0  0  0  0
  2  7  4  0  0  0  0
  1  8  2  0  0  0  0
  1  9  1  0  0  0  0
  5 10  1  0  0  0  0
  3 11  1  0  0  0  0
 12 13  4  0  0  0  0
 13 14  4  0  0  0  0
 14 15  4  0  0  0  0
 15 16  4  0  0  0  0
 16 17  4  0  0  0  0
 12 17  4  0  0  0  0
 15 18  1  0  0  0  0
  9 12  1  0  0  0  0
M  END
> <From>
www.bindingDB.org

> <BindingDB Reactant_set_id>
408359

> <Ligand InChI>
InChI=1S/C14H12ClNO2/c1-9-2-7-12(13(17)8-9)14(18)16-11-5-3-10(15)4-6-11/h2-8,17H,1H3,(H,16,18)

> <Ligand InChI Key>
UVNMERMRDSXOPL-UHFFFAOYSA-N

> <BindingDB MonomerID>
234314

> <BindingDB Ligand Name>
N-(4-chlorophenyl)-2-hydroxy-4-methylbenzamide (16)

> <Target Name>
Epidermal growth factor receptor [645-1186]

> <Target Source Organism According to Curator or DataSource>


> <Ki (nM)>


> <IC50 (nM)>
 50000

> <Kd (nM)>


> <EC50 (nM)>


> <kon (M-1-s-1)>


> <koff (s-1)>


> <pH>
7.4

> <Temp C>
25.00

> <Curation/DataSource>
Curated from the literature by BindingDB

> <Article DOI>
10.3109/14756361003671060

> <BindingDB Entry DOI>
10.7270/Q2XW4HPN

> <PMID>
20583855

> <PubChem AID>
aid1802974

> <Patent Number>


> <Authors>
Zhu, ZW; Shi, L; Ruan, XM; Yang, Y; Li, HQ; Xu, SP; Zhu, HL

> <Institution>
Nanjing University

> <Link to Ligand in BindingDB>
http://www.bindingdb.org/bind/chemsearch/marvin/MolStructure.jsp?monomerid=234314

> <Link to Ligand-Target Pair in BindingDB>
http://www.bindingdb.org/jsp/dbsearch/PrimarySearch_ki.jsp?energyterm=kJ/mole&tag=pol&polymerid=10043&target=Epidermal+growth+factor+receptor+%5B645-1186%5D&column=ki&startPg=0&Increment=50&submit=Search

> <Link to Ligand-Target Pair in BindingDB>
http://www.bindingdb.org/jsp/dbsearch/PrimarySearch_ki.jsp?energyterm=kJ/mole&tag=r21&monomerid=234314&enzyme=Epidermal+growth+factor+receptor+%5B645-1186%5D&column=ki&startPg=0&Increment=50&submit=Search

> <Ligand HET ID in PDB>


> <PDB ID(s) for Ligand-Target Complex>


> <PubChem CID of Ligand>
5274034

> <PubChem SID of Ligand>
340094303

> <ChEBI ID of Ligand>


> <ChEMBL ID of Ligand>


> <DrugBank ID of Ligand>


> <IUPHAR_GRAC ID of Ligand>


> <KEGG ID of Ligand>


> <ZINC ID of Ligand>


> <Number of Protein Chains in Target (bigger than 1 implies a multichain complex)>
1

> <BindingDB Target Chain Sequence>
SIATGMVGALLLLLVVALGIGLFMRRRHIVRKRTLRRLLQERELVEPLTPSGEAPNQALLRILKETEFKKIKVLGSGAFGTVYKGLWIPEGEKVKIPVAIKELREATSPKANKEILDEAYVMASVDNPHVCRLLGICLTSTVQLITQLMPFGCLLDYVREHKDNIGSQYLLNWCVQIAKGMNYLEDRRLVHRDLAARNVLVKTPQHVKITDFGLAKLLGAEEKEYHAEGGKVPIKWMALESILHRIYTHQSDVWSYGVTVWELMTFGSKPYDGIPASEISSILEKGERLPQPPICTIDVYMIMVKCWMIDADSRPKFRELIIEFSKMARDPQRYLVIQGDERMHLPSPTDSNFYRALMDEEDMDDVVDADEYLIPQQGFFSSPSTSRTPLLSSLSATSNNSTVACIDRNGLQSCPIKEDSFLQRYSSDPTGALTEDSIDDTFLPVPEYINQSVPKRPAGSVQNPVYHNQPLNPAPSRDPHYQDPHSTAVGNPEYLNTVQPTCVNSTFDSPAHWAQKGSHQISLDNPDYQQDFFPKEAKPNGI

> <PDB ID(s) of Target Chain>
1M14,1M17,1XKK,1Z9I,2GS2,2GS6,2ITW,2ITX,2ITY,2J5E,2J5F,2J6M,2RF9,2RGP,3BEL,3GOP,3POZ,3VJO,3W2O,3W2P,3W2Q,3W2R,3W2S,3W32,3W33,4G5J,4I23,4JQ7,4JQ8,4JR3,4JRV,4LI5,4RJ4,4RJ5,4RJ6,4RJ7,4RJ8,4TKS,4WKQ,4WRG,4ZAU,5C8K,5C8M,5C8N,5CAL,5CAN,5CAO,5CAP,5CAQ,5CAS,5CAU,5CAV,5EDP,5EDQ,5EDR,5EM5,5EM6,5EM7,5EM8,5GNK,5HCX,5HCY,5HCZ,5HIB,5HIC,5UGB,5Y25,6D8E,6JZ0,6S89,6S8A,6VH4,6VHN,6VHP,7AEI,7AEM,7B85,7OXB,7SI1,7UKV,7ZYM,7ZYN,7ZYP,8A27,8A2A,8HY7

> <UniProt (SwissProt) Recommended Name of Target Chain>
Epidermal growth factor receptor

> <UniProt (SwissProt) Entry Name of Target Chain>
EGFR_HUMAN

> <UniProt (SwissProt) Primary ID of Target Chain>
P00533

> <UniProt (SwissProt) Secondary ID(s) of Target Chain>
O00688 O00732 P06268 Q14225 Q68GS5 Q92795 Q9BZS2 Q9GZX1 Q9H2C9 Q9H3C9 Q9UMD7 Q9UMD8 Q9UMG5

> <UniProt (SwissProt) Alternative ID(s) of Target Chain>


> <UniProt (TrEMBL) Submitted Name of Target Chain>


> <UniProt (TrEMBL) Entry Name of Target Chain>


> <UniProt (TrEMBL) Primary ID of Target Chain>


> <UniProt (TrEMBL) Secondary ID(s) of Target Chain>


> <UniProt (TrEMBL) Alternative ID(s) of Target Chain>


$$$$
